/*---------------------------------------------------------------------------*\
  =========                 |
  \\      /  F ield         | OpenFOAM: The Open Source CFD Toolbox
   \\    /   O peration     | Website:  https://openfoam.org
    \\  /    A nd           | Version:  7
     \\/     M anipulation  |
\*---------------------------------------------------------------------------*/
Build  : 7-49b2b3b8b082
Exec   : checkMesh
Date   : Apr 20 2023
Time   : 17:55:39
Host   : "c410-112.stampede2.tacc.utexas.edu"
PID    : 210796
I/O    : uncollated
Case   : /work2/08376/lew2547/stampede2/CooliestModel/src/CFD/validation-var-Q/pipe_validation_startQ3000
nProcs : 1
sigFpe : Enabling floating point exception trapping (FOAM_SIGFPE).
fileModificationChecking : Monitoring run-time modified files using timeStampMaster (fileModificationSkew 10)
allowSystemOperations : Allowing user-supplied system call operations

// * * * * * * * * * * * * * * * * * * * * * * * * * * * * * * * * * * * * * //
Create time

Create polyMesh for time = 0

Time = 0

Mesh stats
    points:           3926
    internal points:  0
    faces:            7362
    internal faces:   3438
    cells:            1800
    faces per cell:   6
    boundary patches: 6
    point zones:      0
    face zones:       0
    cell zones:       0

Overall number of cells of each type:
    hexahedra:     1800
    prisms:        0
    wedges:        0
    pyramids:      0
    tet wedges:    0
    tetrahedra:    0
    polyhedra:     0

Checking topology...
    Boundary definition OK.
    Cell to face addressing OK.
    Point usage OK.
    Upper triangular ordering OK.
    Face vertices OK.
    Number of regions: 1 (OK).

Checking patch topology for multiply connected surfaces...
    Patch               Faces    Points   Surface topology                  
    upperWall           150      302      ok (non-closed singly connected)  
    lowerWall           30       62       ok (non-closed singly connected)  
    heatedWall          120      242      ok (non-closed singly connected)  
    inlet               12       26       ok (non-closed singly connected)  
    outlet              12       26       ok (non-closed singly connected)  
    frontAndBack        3600     3926     ok (non-closed singly connected)  

Checking geometry...
    Overall domain bounding box (0 0 -0.15) (19.2 0.2 0)
    Mesh has 2 geometric (non-empty/wedge) directions (1 1 0)
    Mesh has 2 solution (non-empty) directions (1 1 0)
    All edges aligned with or perpendicular to non-empty directions.
    Boundary openness (3.85494e-19 4.18647e-16 2.10223e-16) OK.
    Max cell openness = 1.73472e-16 OK.
    Max aspect ratio = 9 OK.
    Minimum face area = 0.000666667. Maximum face area = 0.0225.  Face area magnitudes OK.
    Min volume = 0.0001. Max volume = 0.000375.  Total volume = 0.576.  Cell volumes OK.
    Mesh non-orthogonality Max: 0 average: 0
    Non-orthogonality check OK.
    Face pyramids OK.
    Max skewness = 9.4739e-14 OK.
    Coupled point location match (average 0) OK.

Mesh OK.

End

