/*---------------------------------------------------------------------------*\
  =========                 |
  \\      /  F ield         | OpenFOAM: The Open Source CFD Toolbox
   \\    /   O peration     | Website:  https://openfoam.org
    \\  /    A nd           | Version:  7
     \\/     M anipulation  |
\*---------------------------------------------------------------------------*/
Build  : 7-49b2b3b8b082
Exec   : checkMesh
Date   : Apr 06 2023
Time   : 22:35:01
Host   : "c415-102.stampede2.tacc.utexas.edu"
PID    : 246404
I/O    : uncollated
Case   : /home1/08376/lew2547/seniordesign/CooliestModel/src/CFD/pipe_validation_refine
nProcs : 1
sigFpe : Enabling floating point exception trapping (FOAM_SIGFPE).
fileModificationChecking : Monitoring run-time modified files using timeStampMaster (fileModificationSkew 10)
allowSystemOperations : Allowing user-supplied system call operations

// * * * * * * * * * * * * * * * * * * * * * * * * * * * * * * * * * * * * * //
Create time

Create polyMesh for time = 0

Time = 0

Mesh stats
    points:           12050
    internal points:  0
    faces:            23304
    internal faces:   11256
    cells:            5760
    faces per cell:   6
    boundary patches: 5
    point zones:      0
    face zones:       0
    cell zones:       0

Overall number of cells of each type:
    hexahedra:     5760
    prisms:        0
    wedges:        0
    pyramids:      0
    tet wedges:    0
    tetrahedra:    0
    polyhedra:     0

Checking topology...
    Boundary definition OK.
    Cell to face addressing OK.
    Point usage OK.
    Upper triangular ordering OK.
    Face vertices OK.
    Number of regions: 1 (OK).

Checking patch topology for multiply connected surfaces...
    Patch               Faces    Points   Surface topology                  
    upperWall           240      482      ok (non-closed singly connected)  
    lowerWall           240      482      ok (non-closed singly connected)  
    inlet               24       50       ok (non-closed singly connected)  
    outlet              24       50       ok (non-closed singly connected)  
    frontAndBack        11520    12050    ok (non-closed singly connected)  

Checking geometry...
    Overall domain bounding box (0 0 -0.15) (18 0.2 0)
    Mesh has 2 geometric (non-empty/wedge) directions (1 1 0)
    Mesh has 2 solution (non-empty) directions (1 1 0)
    All edges aligned with or perpendicular to non-empty directions.
    Boundary openness (-1.45588e-18 2.43766e-16 1.43841e-16) OK.
    Max cell openness = 1.73472e-16 OK.
    Max aspect ratio = 9 OK.
    Minimum face area = 0.000625. Maximum face area = 0.01125.  Face area magnitudes OK.
    Min volume = 9.375e-05. Max volume = 9.375e-05.  Total volume = 0.54.  Cell volumes OK.
    Mesh non-orthogonality Max: 0 average: 0
    Non-orthogonality check OK.
    Face pyramids OK.
    Max skewness = 2.84207e-13 OK.
    Coupled point location match (average 0) OK.

Mesh OK.

End

