/*---------------------------------------------------------------------------*\
  =========                 |
  \\      /  F ield         | OpenFOAM: The Open Source CFD Toolbox
   \\    /   O peration     | Website:  https://openfoam.org
    \\  /    A nd           | Version:  7
     \\/     M anipulation  |
\*---------------------------------------------------------------------------*/
Build  : 7-49b2b3b8b082
Exec   : rhoPimpleFoam
Date   : Apr 06 2023
Time   : 17:05:15
Host   : "c405-063.stampede2.tacc.utexas.edu"
PID    : 217011
I/O    : uncollated
Case   : /home1/07645/eesha_n/SeniorDesign/CooliestModel/src/CFD/pipe_validation_refine
nProcs : 1
sigFpe : Enabling floating point exception trapping (FOAM_SIGFPE).
fileModificationChecking : Monitoring run-time modified files using timeStampMaster (fileModificationSkew 10)
allowSystemOperations : Allowing user-supplied system call operations

// * * * * * * * * * * * * * * * * * * * * * * * * * * * * * * * * * * * * * //
Create time

Create mesh for time = 0


PIMPLE: No convergence criteria found


PIMPLE: No corrector convergence criteria found
        Calculations will do 3 corrections


PIMPLE: Operating solver in transient mode with 3 outer correctors


Reading thermophysical properties

Selecting thermodynamics package 
{
    type            hePsiThermo;
    mixture         pureMixture;
    transport       const;
    thermo          eConst;
    equationOfState perfectGas;
    specie          specie;
    energy          sensibleInternalEnergy;
}

--> FOAM Warning : 
    From function Foam::Field<Type>::Field(const Foam::word &, const Foam::dictionary &, int) [with Type = double]
    in file /home1/apps/intel18/impi18_0/OpenFOAM/OpenFOAM-7/src/OpenFOAM/lnInclude/Field.C at line 235
    Reading "/home1/07645/eesha_n/SeniorDesign/CooliestModel/src/CFD/pipe_validation_refine/0/T.boundaryField.lowerWall" from line 44 to line 19
    expected keyword 'uniform' or 'nonuniform', assuming deprecated Field format from Foam version 2.0.
Reading field U

Reading/calculating face flux field phi

pressureControl
    pMax 200000
    pMin 50000

Creating turbulence model

Selecting turbulence model type LES
Selecting LES turbulence model kEqn
Selecting LES delta type cubeRootVol
--> FOAM Warning : 
    From function void Foam::LESModels::cubeRootVolDelta::calcDelta()
    in file LES/LESdeltas/cubeRootVolDelta/cubeRootVolDelta.C at line 55
    Case is 2D, LES is not strictly applicable

bounding k, min: 0 max: 2e-05 average: 0
LES
{
    LESModel        kEqn;
    turbulence      on;
    printCoeffs     on;
    delta           cubeRootVol;
    cubeRootVolCoeffs
    {
        deltaCoeff      1;
    }
    PrandtlCoeffs
    {
        delta           cubeRootVol;
        cubeRootVolCoeffs
        {
            deltaCoeff      1;
        }
        smoothCoeffs
        {
            delta           cubeRootVol;
            cubeRootVolCoeffs
            {
                deltaCoeff      1;
            }
            maxDeltaRatio   1.1;
        }
        Cdelta          0.158;
    }
    vanDriestCoeffs
    {
        delta           cubeRootVol;
        cubeRootVolCoeffs
        {
            deltaCoeff      1;
        }
        smoothCoeffs
        {
            delta           cubeRootVol;
            cubeRootVolCoeffs
            {
                deltaCoeff      1;
            }
            maxDeltaRatio   1.1;
        }
        Aplus           26;
        Cdelta          0.158;
    }
    smoothCoeffs
    {
        delta           cubeRootVol;
        cubeRootVolCoeffs
        {
            deltaCoeff      1;
        }
        maxDeltaRatio   1.1;
    }
    Ce              1.048;
    Ck              0.094;
}

Creating field dpdt

Creating field kinetic energy K

No MRF models present

No finite volume options present
Courant Number mean: 0.000625 max: 0.15

Starting time loop

Courant Number mean: 0.000625 max: 0.15
Time = 0.005

PIMPLE: Iteration 1
diagonal:  Solving for rho, Initial residual = 0, Final residual = 0, No Iterations 0
smoothSolver:  Solving for Ux, Initial residual = 1, Final residual = 9.31265e-07, No Iterations 1
smoothSolver:  Solving for Uy, Initial residual = 1, Final residual = 4.85497e-07, No Iterations 1
smoothSolver:  Solving for e, Initial residual = 1, Final residual = 1.61164e-06, No Iterations 1
DICPCG:  Solving for p, Initial residual = 1, Final residual = 9.57298e-07, No Iterations 209
diagonal:  Solving for rho, Initial residual = 0, Final residual = 0, No Iterations 0
time step continuity errors : sum local = 1.61793e-09, global = 1.69647e-11, cumulative = 1.69647e-11
PIMPLE: Iteration 2
smoothSolver:  Solving for Ux, Initial residual = 0.122981, Final residual = 0.000704029, No Iterations 1
smoothSolver:  Solving for Uy, Initial residual = 0.371137, Final residual = 0.000233617, No Iterations 1
smoothSolver:  Solving for e, Initial residual = 0.482695, Final residual = 0.000820799, No Iterations 1
DICPCG:  Solving for p, Initial residual = 0.104285, Final residual = 9.47787e-07, No Iterations 138
diagonal:  Solving for rho, Initial residual = 0, Final residual = 0, No Iterations 0
time step continuity errors : sum local = 5.35694e-09, global = 3.63133e-11, cumulative = 5.3278e-11
PIMPLE: Iteration 3
smoothSolver:  Solving for Ux, Initial residual = 0.0038526, Final residual = 3.5826e-08, No Iterations 2
smoothSolver:  Solving for Uy, Initial residual = 0.0122725, Final residual = 5.35016e-08, No Iterations 2
smoothSolver:  Solving for e, Initial residual = 0.301587, Final residual = 7.23585e-07, No Iterations 2
DICPCG:  Solving for p, Initial residual = 0.124228, Final residual = 9.94689e-07, No Iterations 140
diagonal:  Solving for rho, Initial residual = 0, Final residual = 0, No Iterations 0
time step continuity errors : sum local = 5.35468e-09, global = 2.82067e-10, cumulative = 3.35345e-10
smoothSolver:  Solving for k, Initial residual = 0.962557, Final residual = 7.55665e-07, No Iterations 3
bounding k, min: 0 max: 0.00103665 average: 4.58962e-07
ExecutionTime = 0.67 s  ClockTime = 1 s

Courant Number mean: 0.0246211 max: 0.314484
Time = 0.01

PIMPLE: Iteration 1
diagonal:  Solving for rho, Initial residual = 0, Final residual = 0, No Iterations 0
smoothSolver:  Solving for Ux, Initial residual = 0.316843, Final residual = 0.000972958, No Iterations 1
smoothSolver:  Solving for Uy, Initial residual = 0.657388, Final residual = 0.000207671, No Iterations 1
smoothSolver:  Solving for e, Initial residual = 0.371376, Final residual = 0.000550528, No Iterations 1
DICPCG:  Solving for p, Initial residual = 0.711626, Final residual = 9.88694e-07, No Iterations 163
diagonal:  Solving for rho, Initial residual = 0, Final residual = 0, No Iterations 0
time step continuity errors : sum local = 6.09825e-09, global = 3.5157e-10, cumulative = 6.86915e-10
PIMPLE: Iteration 2
smoothSolver:  Solving for Ux, Initial residual = 0.00545693, Final residual = 4.31114e-05, No Iterations 1
smoothSolver:  Solving for Uy, Initial residual = 0.0118866, Final residual = 5.55489e-05, No Iterations 1
smoothSolver:  Solving for e, Initial residual = 0.0912058, Final residual = 0.000526415, No Iterations 1
DICPCG:  Solving for p, Initial residual = 0.0477185, Final residual = 9.50257e-07, No Iterations 135
diagonal:  Solving for rho, Initial residual = 0, Final residual = 0, No Iterations 0
time step continuity errors : sum local = 9.37264e-09, global = 7.16009e-10, cumulative = 1.40292e-09
PIMPLE: Iteration 3
smoothSolver:  Solving for Ux, Initial residual = 0.00138218, Final residual = 5.95279e-08, No Iterations 2
smoothSolver:  Solving for Uy, Initial residual = 0.00122133, Final residual = 4.57445e-08, No Iterations 2
smoothSolver:  Solving for e, Initial residual = 0.0235479, Final residual = 9.68425e-09, No Iterations 3
DICPCG:  Solving for p, Initial residual = 0.0117457, Final residual = 9.96043e-07, No Iterations 115
diagonal:  Solving for rho, Initial residual = 0, Final residual = 0, No Iterations 0
time step continuity errors : sum local = 9.78203e-09, global = -7.31763e-10, cumulative = 6.7116e-10
smoothSolver:  Solving for k, Initial residual = 0.945187, Final residual = 4.16995e-07, No Iterations 3
bounding k, min: 0 max: 0.0318402 average: 3.18675e-05
ExecutionTime = 0.92 s  ClockTime = 1 s

Courant Number mean: 0.0498273 max: 0.324502
Time = 0.015

PIMPLE: Iteration 1
diagonal:  Solving for rho, Initial residual = 0, Final residual = 0, No Iterations 0
smoothSolver:  Solving for Ux, Initial residual = 0.205427, Final residual = 0.000737969, No Iterations 1
smoothSolver:  Solving for Uy, Initial residual = 0.508788, Final residual = 0.000499116, No Iterations 1
smoothSolver:  Solving for e, Initial residual = 0.219949, Final residual = 0.000446518, No Iterations 1
DICPCG:  Solving for p, Initial residual = 0.281254, Final residual = 9.22687e-07, No Iterations 153
diagonal:  Solving for rho, Initial residual = 0, Final residual = 0, No Iterations 0
time step continuity errors : sum local = 9.78318e-09, global = 4.03991e-10, cumulative = 1.07515e-09
PIMPLE: Iteration 2
smoothSolver:  Solving for Ux, Initial residual = 0.00322851, Final residual = 2.63115e-05, No Iterations 1
smoothSolver:  Solving for Uy, Initial residual = 0.00665852, Final residual = 4.28954e-05, No Iterations 1
smoothSolver:  Solving for e, Initial residual = 0.0517976, Final residual = 0.000306609, No Iterations 1
DICPCG:  Solving for p, Initial residual = 0.0262261, Final residual = 9.40698e-07, No Iterations 126
diagonal:  Solving for rho, Initial residual = 0, Final residual = 0, No Iterations 0
time step continuity errors : sum local = 1.30472e-08, global = 1.21892e-09, cumulative = 2.29407e-09
PIMPLE: Iteration 3
smoothSolver:  Solving for Ux, Initial residual = 0.000661425, Final residual = 3.86797e-08, No Iterations 2
smoothSolver:  Solving for Uy, Initial residual = 0.00120883, Final residual = 9.07494e-08, No Iterations 2
smoothSolver:  Solving for e, Initial residual = 0.0101561, Final residual = 6.37704e-07, No Iterations 2
DICPCG:  Solving for p, Initial residual = 0.00525532, Final residual = 9.8008e-07, No Iterations 104
diagonal:  Solving for rho, Initial residual = 0, Final residual = 0, No Iterations 0
time step continuity errors : sum local = 1.34498e-08, global = -5.36624e-10, cumulative = 1.75745e-09
smoothSolver:  Solving for k, Initial residual = 0.845533, Final residual = 6.081e-07, No Iterations 3
bounding k, min: 0 max: 0.342581 average: 0.000714532
ExecutionTime = 1.17 s  ClockTime = 2 s

Courant Number mean: 0.0784447 max: 0.328544
Time = 0.02

PIMPLE: Iteration 1
diagonal:  Solving for rho, Initial residual = 0, Final residual = 0, No Iterations 0
smoothSolver:  Solving for Ux, Initial residual = 0.169193, Final residual = 0.000646199, No Iterations 1
smoothSolver:  Solving for Uy, Initial residual = 0.0660847, Final residual = 0.000129316, No Iterations 1
smoothSolver:  Solving for e, Initial residual = 0.158712, Final residual = 0.000414142, No Iterations 1
DICPCG:  Solving for p, Initial residual = 0.179343, Final residual = 8.71394e-07, No Iterations 145
diagonal:  Solving for rho, Initial residual = 0, Final residual = 0, No Iterations 0
time step continuity errors : sum local = 1.27205e-08, global = 2.31222e-10, cumulative = 1.98867e-09
PIMPLE: Iteration 2
smoothSolver:  Solving for Ux, Initial residual = 0.00264191, Final residual = 2.20636e-05, No Iterations 1
smoothSolver:  Solving for Uy, Initial residual = 0.00307383, Final residual = 2.33727e-05, No Iterations 1
smoothSolver:  Solving for e, Initial residual = 0.0372776, Final residual = 0.000237268, No Iterations 1
DICPCG:  Solving for p, Initial residual = 0.0188621, Final residual = 9.47061e-07, No Iterations 119
diagonal:  Solving for rho, Initial residual = 0, Final residual = 0, No Iterations 0
time step continuity errors : sum local = 1.64482e-08, global = 1.4973e-09, cumulative = 3.48597e-09
PIMPLE: Iteration 3
smoothSolver:  Solving for Ux, Initial residual = 0.000526064, Final residual = 3.64995e-08, No Iterations 2
smoothSolver:  Solving for Uy, Initial residual = 0.00130616, Final residual = 9.86576e-08, No Iterations 2
smoothSolver:  Solving for e, Initial residual = 0.00672204, Final residual = 4.84198e-07, No Iterations 2
DICPCG:  Solving for p, Initial residual = 0.00361753, Final residual = 9.9976e-07, No Iterations 96
diagonal:  Solving for rho, Initial residual = 0, Final residual = 0, No Iterations 0
time step continuity errors : sum local = 1.72052e-08, global = -1.06783e-09, cumulative = 2.41814e-09
smoothSolver:  Solving for k, Initial residual = 0.669571, Final residual = 5.19644e-07, No Iterations 3
bounding k, min: 0 max: 1.32693 average: 0.00635276
ExecutionTime = 1.8 s  ClockTime = 2 s

Courant Number mean: 0.108586 max: 0.342533
Time = 0.025

PIMPLE: Iteration 1
diagonal:  Solving for rho, Initial residual = 0, Final residual = 0, No Iterations 0
smoothSolver:  Solving for Ux, Initial residual = 0.154653, Final residual = 0.000599722, No Iterations 1
smoothSolver:  Solving for Uy, Initial residual = 0.0563292, Final residual = 0.000295199, No Iterations 1
smoothSolver:  Solving for e, Initial residual = 0.127564, Final residual = 0.000393199, No Iterations 1
DICPCG:  Solving for p, Initial residual = 0.13783, Final residual = 8.55868e-07, No Iterations 138
diagonal:  Solving for rho, Initial residual = 0, Final residual = 0, No Iterations 0
time step continuity errors : sum local = 1.53428e-08, global = -2.96002e-10, cumulative = 2.12214e-09
PIMPLE: Iteration 2
smoothSolver:  Solving for Ux, Initial residual = 0.00243802, Final residual = 2.03528e-05, No Iterations 1
smoothSolver:  Solving for Uy, Initial residual = 0.00426468, Final residual = 3.20784e-05, No Iterations 1
smoothSolver:  Solving for e, Initial residual = 0.0301143, Final residual = 0.000192575, No Iterations 1
DICPCG:  Solving for p, Initial residual = 0.0155499, Final residual = 9.27904e-07, No Iterations 113
diagonal:  Solving for rho, Initial residual = 0, Final residual = 0, No Iterations 0
time step continuity errors : sum local = 1.84876e-08, global = 1.63285e-09, cumulative = 3.75499e-09
PIMPLE: Iteration 3
smoothSolver:  Solving for Ux, Initial residual = 0.000460492, Final residual = 3.25937e-08, No Iterations 2
smoothSolver:  Solving for Uy, Initial residual = 0.00189108, Final residual = 1.46892e-07, No Iterations 2
smoothSolver:  Solving for e, Initial residual = 0.00487253, Final residual = 3.29153e-07, No Iterations 2
DICPCG:  Solving for p, Initial residual = 0.00261075, Final residual = 9.57619e-07, No Iterations 91
diagonal:  Solving for rho, Initial residual = 0, Final residual = 0, No Iterations 0
time step continuity errors : sum local = 1.89186e-08, global = -1.68781e-09, cumulative = 2.06717e-09
smoothSolver:  Solving for k, Initial residual = 0.437665, Final residual = 2.33901e-07, No Iterations 3
bounding k, min: 0 max: 2.4684 average: 0.0248878
ExecutionTime = 2.03 s  ClockTime = 3 s

Courant Number mean: 0.139532 max: 0.37926
Time = 0.03

PIMPLE: Iteration 1
diagonal:  Solving for rho, Initial residual = 0, Final residual = 0, No Iterations 0
smoothSolver:  Solving for Ux, Initial residual = 0.155726, Final residual = 0.000610898, No Iterations 1
smoothSolver:  Solving for Uy, Initial residual = 0.0871589, Final residual = 0.000544951, No Iterations 1
smoothSolver:  Solving for e, Initial residual = 0.109147, Final residual = 0.000372806, No Iterations 1
DICPCG:  Solving for p, Initial residual = 0.116475, Final residual = 8.80932e-07, No Iterations 131
diagonal:  Solving for rho, Initial residual = 0, Final residual = 0, No Iterations 0
time step continuity errors : sum local = 1.78724e-08, global = -5.23988e-10, cumulative = 1.54319e-09
PIMPLE: Iteration 2
smoothSolver:  Solving for Ux, Initial residual = 0.00248283, Final residual = 1.98538e-05, No Iterations 1
smoothSolver:  Solving for Uy, Initial residual = 0.00602326, Final residual = 4.34023e-05, No Iterations 1
smoothSolver:  Solving for e, Initial residual = 0.0274753, Final residual = 0.000176169, No Iterations 1
DICPCG:  Solving for p, Initial residual = 0.0141984, Final residual = 8.8049e-07, No Iterations 105
diagonal:  Solving for rho, Initial residual = 0, Final residual = 0, No Iterations 0
time step continuity errors : sum local = 1.89414e-08, global = 2.67939e-09, cumulative = 4.22258e-09
PIMPLE: Iteration 3
smoothSolver:  Solving for Ux, Initial residual = 0.000455791, Final residual = 3.16579e-08, No Iterations 2
smoothSolver:  Solving for Uy, Initial residual = 0.00248489, Final residual = 1.86223e-07, No Iterations 2
smoothSolver:  Solving for e, Initial residual = 0.00430085, Final residual = 2.72597e-07, No Iterations 2
DICPCG:  Solving for p, Initial residual = 0.00225949, Final residual = 8.99214e-07, No Iterations 91
diagonal:  Solving for rho, Initial residual = 0, Final residual = 0, No Iterations 0
time step continuity errors : sum local = 1.91854e-08, global = -1.39532e-09, cumulative = 2.82726e-09
smoothSolver:  Solving for k, Initial residual = 0.256224, Final residual = 1.00041e-07, No Iterations 3
bounding k, min: 0 max: 2.98477 average: 0.0562352
ExecutionTime = 2.26 s  ClockTime = 3 s

Courant Number mean: 0.170822 max: 0.419832
Time = 0.035

PIMPLE: Iteration 1
diagonal:  Solving for rho, Initial residual = 0, Final residual = 0, No Iterations 0
smoothSolver:  Solving for Ux, Initial residual = 0.168459, Final residual = 0.000683302, No Iterations 1
smoothSolver:  Solving for Uy, Initial residual = 0.101826, Final residual = 0.000680373, No Iterations 1
smoothSolver:  Solving for e, Initial residual = 0.0969969, Final residual = 0.000475791, No Iterations 1
DICPCG:  Solving for p, Initial residual = 0.105523, Final residual = 9.8524e-07, No Iterations 119
diagonal:  Solving for rho, Initial residual = 0, Final residual = 0, No Iterations 0
time step continuity errors : sum local = 2.12989e-08, global = -2.41005e-10, cumulative = 2.58625e-09
PIMPLE: Iteration 2
smoothSolver:  Solving for Ux, Initial residual = 0.00271499, Final residual = 2.06756e-05, No Iterations 1
smoothSolver:  Solving for Uy, Initial residual = 0.00702685, Final residual = 5.25913e-05, No Iterations 1
smoothSolver:  Solving for e, Initial residual = 0.0252618, Final residual = 0.0001695, No Iterations 1
DICPCG:  Solving for p, Initial residual = 0.0134296, Final residual = 8.88764e-07, No Iterations 107
diagonal:  Solving for rho, Initial residual = 0, Final residual = 0, No Iterations 0
time step continuity errors : sum local = 1.9611e-08, global = -8.56482e-10, cumulative = 1.72977e-09
PIMPLE: Iteration 3
smoothSolver:  Solving for Ux, Initial residual = 0.000494646, Final residual = 3.34151e-08, No Iterations 2
smoothSolver:  Solving for Uy, Initial residual = 0.00309441, Final residual = 2.28196e-07, No Iterations 2
smoothSolver:  Solving for e, Initial residual = 0.00390471, Final residual = 2.57641e-07, No Iterations 2
DICPCG:  Solving for p, Initial residual = 0.00211331, Final residual = 9.707e-07, No Iterations 86
diagonal:  Solving for rho, Initial residual = 0, Final residual = 0, No Iterations 0
time step continuity errors : sum local = 2.12425e-08, global = -1.09495e-09, cumulative = 6.34823e-10
smoothSolver:  Solving for k, Initial residual = 0.149876, Final residual = 5.08533e-08, No Iterations 3
bounding k, min: 0 max: 2.87584 average: 0.0925133
ExecutionTime = 2.48 s  ClockTime = 3 s

Courant Number mean: 0.202321 max: 0.459039
Time = 0.04

PIMPLE: Iteration 1
diagonal:  Solving for rho, Initial residual = 0, Final residual = 0, No Iterations 0
smoothSolver:  Solving for Ux, Initial residual = 0.188155, Final residual = 0.00083367, No Iterations 1
smoothSolver:  Solving for Uy, Initial residual = 0.107162, Final residual = 0.000749849, No Iterations 1
smoothSolver:  Solving for e, Initial residual = 0.0883848, Final residual = 0.000628258, No Iterations 1
DICPCG:  Solving for p, Initial residual = 0.100573, Final residual = 9.86838e-07, No Iterations 122
diagonal:  Solving for rho, Initial residual = 0, Final residual = 0, No Iterations 0
time step continuity errors : sum local = 2.15466e-08, global = 1.3497e-10, cumulative = 7.69793e-10
PIMPLE: Iteration 2
smoothSolver:  Solving for Ux, Initial residual = 0.00310861, Final residual = 2.37786e-05, No Iterations 1
smoothSolver:  Solving for Uy, Initial residual = 0.00738548, Final residual = 5.79153e-05, No Iterations 1
smoothSolver:  Solving for e, Initial residual = 0.021326, Final residual = 0.000164598, No Iterations 1
DICPCG:  Solving for p, Initial residual = 0.0125694, Final residual = 9.61006e-07, No Iterations 101
diagonal:  Solving for rho, Initial residual = 0, Final residual = 0, No Iterations 0
time step continuity errors : sum local = 2.06645e-08, global = -1.88254e-09, cumulative = -1.11275e-09
PIMPLE: Iteration 3
smoothSolver:  Solving for Ux, Initial residual = 0.000569935, Final residual = 3.91711e-08, No Iterations 2
smoothSolver:  Solving for Uy, Initial residual = 0.00374798, Final residual = 2.93186e-07, No Iterations 2
smoothSolver:  Solving for e, Initial residual = 0.00318972, Final residual = 2.46089e-07, No Iterations 2
DICPCG:  Solving for p, Initial residual = 0.00195803, Final residual = 9.72529e-07, No Iterations 84
diagonal:  Solving for rho, Initial residual = 0, Final residual = 0, No Iterations 0
time step continuity errors : sum local = 2.07436e-08, global = 3.37299e-10, cumulative = -7.75452e-10
smoothSolver:  Solving for k, Initial residual = 0.111252, Final residual = 4.12351e-08, No Iterations 3
bounding k, min: 0 max: 3.02544 average: 0.12935
ExecutionTime = 3.13 s  ClockTime = 4 s

Courant Number mean: 0.234036 max: 0.489804
Time = 0.045

PIMPLE: Iteration 1
diagonal:  Solving for rho, Initial residual = 0, Final residual = 0, No Iterations 0
smoothSolver:  Solving for Ux, Initial residual = 0.21483, Final residual = 0.00110053, No Iterations 1
smoothSolver:  Solving for Uy, Initial residual = 0.111141, Final residual = 0.000827399, No Iterations 1
smoothSolver:  Solving for e, Initial residual = 0.0812448, Final residual = 0.000742252, No Iterations 1
DICPCG:  Solving for p, Initial residual = 0.0998682, Final residual = 8.05332e-07, No Iterations 120
diagonal:  Solving for rho, Initial residual = 0, Final residual = 0, No Iterations 0
time step continuity errors : sum local = 1.68718e-08, global = 1.04486e-09, cumulative = 2.69405e-10
PIMPLE: Iteration 2
smoothSolver:  Solving for Ux, Initial residual = 0.00391275, Final residual = 3.12412e-05, No Iterations 1
smoothSolver:  Solving for Uy, Initial residual = 0.00758376, Final residual = 6.18806e-05, No Iterations 1
smoothSolver:  Solving for e, Initial residual = 0.0177238, Final residual = 0.000168789, No Iterations 1
DICPCG:  Solving for p, Initial residual = 0.0121283, Final residual = 9.52597e-07, No Iterations 106
diagonal:  Solving for rho, Initial residual = 0, Final residual = 0, No Iterations 0
time step continuity errors : sum local = 1.89861e-08, global = 7.1671e-12, cumulative = 2.76572e-10
PIMPLE: Iteration 3
smoothSolver:  Solving for Ux, Initial residual = 0.000672124, Final residual = 5.15259e-08, No Iterations 2
smoothSolver:  Solving for Uy, Initial residual = 0.00446901, Final residual = 3.85447e-07, No Iterations 2
smoothSolver:  Solving for e, Initial residual = 0.00279781, Final residual = 3.06361e-07, No Iterations 2
DICPCG:  Solving for p, Initial residual = 0.00200173, Final residual = 9.69396e-07, No Iterations 85
diagonal:  Solving for rho, Initial residual = 0, Final residual = 0, No Iterations 0
time step continuity errors : sum local = 1.91872e-08, global = 2.16842e-09, cumulative = 2.44499e-09
smoothSolver:  Solving for k, Initial residual = 0.116215, Final residual = 4.09483e-08, No Iterations 3
bounding k, min: 0 max: 3.25151 average: 0.169289
ExecutionTime = 3.35 s  ClockTime = 4 s

Courant Number mean: 0.265751 max: 0.511324
Time = 0.05

PIMPLE: Iteration 1
diagonal:  Solving for rho, Initial residual = 0, Final residual = 0, No Iterations 0
smoothSolver:  Solving for Ux, Initial residual = 0.253963, Final residual = 0.00155183, No Iterations 1
smoothSolver:  Solving for Uy, Initial residual = 0.116415, Final residual = 0.000877924, No Iterations 1
smoothSolver:  Solving for e, Initial residual = 0.0734057, Final residual = 1.13099e-05, No Iterations 2
DICPCG:  Solving for p, Initial residual = 0.09853, Final residual = 7.92232e-07, No Iterations 124
diagonal:  Solving for rho, Initial residual = 0, Final residual = 0, No Iterations 0
time step continuity errors : sum local = 1.5222e-08, global = 7.16048e-10, cumulative = 3.16104e-09
PIMPLE: Iteration 2
smoothSolver:  Solving for Ux, Initial residual = 0.00528777, Final residual = 4.58999e-05, No Iterations 1
smoothSolver:  Solving for Uy, Initial residual = 0.00777365, Final residual = 6.20759e-05, No Iterations 1
smoothSolver:  Solving for e, Initial residual = 0.0148993, Final residual = 1.96304e-06, No Iterations 2
DICPCG:  Solving for p, Initial residual = 0.011954, Final residual = 8.48276e-07, No Iterations 106
diagonal:  Solving for rho, Initial residual = 0, Final residual = 0, No Iterations 0
time step continuity errors : sum local = 1.50807e-08, global = -9.81833e-11, cumulative = 3.06285e-09
PIMPLE: Iteration 3
smoothSolver:  Solving for Ux, Initial residual = 0.000795817, Final residual = 7.26358e-08, No Iterations 2
smoothSolver:  Solving for Uy, Initial residual = 0.00407246, Final residual = 4.23235e-07, No Iterations 2
smoothSolver:  Solving for e, Initial residual = 0.00263448, Final residual = 3.07385e-07, No Iterations 2
DICPCG:  Solving for p, Initial residual = 0.00215174, Final residual = 9.21584e-07, No Iterations 84
diagonal:  Solving for rho, Initial residual = 0, Final residual = 0, No Iterations 0
time step continuity errors : sum local = 1.63119e-08, global = 1.43885e-09, cumulative = 4.50171e-09
smoothSolver:  Solving for k, Initial residual = 0.118978, Final residual = 4.68263e-08, No Iterations 3
bounding k, min: 0 max: 3.58105 average: 0.218048
ExecutionTime = 3.57 s  ClockTime = 4 s

Courant Number mean: 0.297056 max: 0.524986
Time = 0.055

PIMPLE: Iteration 1
diagonal:  Solving for rho, Initial residual = 0, Final residual = 0, No Iterations 0
smoothSolver:  Solving for Ux, Initial residual = 0.303975, Final residual = 0.00232623, No Iterations 1
smoothSolver:  Solving for Uy, Initial residual = 0.122378, Final residual = 0.000973205, No Iterations 1
smoothSolver:  Solving for e, Initial residual = 0.0659784, Final residual = 1.38541e-05, No Iterations 2
DICPCG:  Solving for p, Initial residual = 0.0882185, Final residual = 9.40301e-07, No Iterations 124
diagonal:  Solving for rho, Initial residual = 0, Final residual = 0, No Iterations 0
time step continuity errors : sum local = 1.60632e-08, global = 6.16425e-10, cumulative = 5.11813e-09
PIMPLE: Iteration 2
smoothSolver:  Solving for Ux, Initial residual = 0.00685102, Final residual = 6.78227e-05, No Iterations 1
smoothSolver:  Solving for Uy, Initial residual = 0.00852736, Final residual = 7.14097e-05, No Iterations 1
smoothSolver:  Solving for e, Initial residual = 0.0140813, Final residual = 2.40928e-06, No Iterations 2
DICPCG:  Solving for p, Initial residual = 0.0133333, Final residual = 8.45222e-07, No Iterations 107
diagonal:  Solving for rho, Initial residual = 0, Final residual = 0, No Iterations 0
time step continuity errors : sum local = 1.32307e-08, global = -7.66169e-10, cumulative = 4.35196e-09
PIMPLE: Iteration 3
smoothSolver:  Solving for Ux, Initial residual = 0.00104367, Final residual = 1.20951e-07, No Iterations 2
smoothSolver:  Solving for Uy, Initial residual = 0.00460588, Final residual = 5.97485e-07, No Iterations 2
smoothSolver:  Solving for e, Initial residual = 0.00250212, Final residual = 3.66332e-07, No Iterations 2
DICPCG:  Solving for p, Initial residual = 0.00238968, Final residual = 9.36188e-07, No Iterations 82
diagonal:  Solving for rho, Initial residual = 0, Final residual = 0, No Iterations 0
time step continuity errors : sum local = 1.46618e-08, global = 6.05077e-10, cumulative = 4.95704e-09
smoothSolver:  Solving for k, Initial residual = 0.118166, Final residual = 5.63509e-08, No Iterations 3
bounding k, min: 0 max: 3.99605 average: 0.280672
ExecutionTime = 3.8 s  ClockTime = 4 s

Courant Number mean: 0.32744 max: 0.532915
Time = 0.06

PIMPLE: Iteration 1
diagonal:  Solving for rho, Initial residual = 0, Final residual = 0, No Iterations 0
smoothSolver:  Solving for Ux, Initial residual = 0.310982, Final residual = 3.42237e-05, No Iterations 2
smoothSolver:  Solving for Uy, Initial residual = 0.115459, Final residual = 0.0010141, No Iterations 1
smoothSolver:  Solving for e, Initial residual = 0.0594324, Final residual = 1.73868e-05, No Iterations 2
DICPCG:  Solving for p, Initial residual = 0.0651152, Final residual = 9.41011e-07, No Iterations 117
diagonal:  Solving for rho, Initial residual = 0, Final residual = 0, No Iterations 0
time step continuity errors : sum local = 1.41548e-08, global = 8.57655e-10, cumulative = 5.8147e-09
PIMPLE: Iteration 2
smoothSolver:  Solving for Ux, Initial residual = 0.00477088, Final residual = 8.24262e-07, No Iterations 2
smoothSolver:  Solving for Uy, Initial residual = 0.00902265, Final residual = 8.26753e-05, No Iterations 1
smoothSolver:  Solving for e, Initial residual = 0.0145743, Final residual = 3.5539e-06, No Iterations 2
DICPCG:  Solving for p, Initial residual = 0.0158609, Final residual = 9.24551e-07, No Iterations 106
diagonal:  Solving for rho, Initial residual = 0, Final residual = 0, No Iterations 0
time step continuity errors : sum local = 1.29483e-08, global = -8.72874e-10, cumulative = 4.94182e-09
PIMPLE: Iteration 3
smoothSolver:  Solving for Ux, Initial residual = 0.000961422, Final residual = 1.65813e-07, No Iterations 2
smoothSolver:  Solving for Uy, Initial residual = 0.00433632, Final residual = 9.22294e-07, No Iterations 2
smoothSolver:  Solving for e, Initial residual = 0.00210516, Final residual = 4.52766e-07, No Iterations 2
DICPCG:  Solving for p, Initial residual = 0.00228454, Final residual = 9.41462e-07, No Iterations 84
diagonal:  Solving for rho, Initial residual = 0, Final residual = 0, No Iterations 0
time step continuity errors : sum local = 1.32745e-08, global = 3.60485e-10, cumulative = 5.30231e-09
smoothSolver:  Solving for k, Initial residual = 0.116623, Final residual = 9.65231e-08, No Iterations 3
bounding k, min: 0 max: 4.59293 average: 0.359839
ExecutionTime = 4.42 s  ClockTime = 5 s

Courant Number mean: 0.356557 max: 0.537096
Time = 0.065

PIMPLE: Iteration 1
diagonal:  Solving for rho, Initial residual = 0, Final residual = 0, No Iterations 0
smoothSolver:  Solving for Ux, Initial residual = 0.241661, Final residual = 5.68426e-05, No Iterations 2
smoothSolver:  Solving for Uy, Initial residual = 0.0934686, Final residual = 1.20541e-05, No Iterations 2
smoothSolver:  Solving for e, Initial residual = 0.0554052, Final residual = 2.30617e-05, No Iterations 2
DICPCG:  Solving for p, Initial residual = 0.0436951, Final residual = 9.57653e-07, No Iterations 117
diagonal:  Solving for rho, Initial residual = 0, Final residual = 0, No Iterations 0
time step continuity errors : sum local = 1.31592e-08, global = -4.5257e-10, cumulative = 4.84974e-09
PIMPLE: Iteration 2
smoothSolver:  Solving for Ux, Initial residual = 0.00255878, Final residual = 6.52009e-07, No Iterations 2
smoothSolver:  Solving for Uy, Initial residual = 0.00893209, Final residual = 1.72655e-06, No Iterations 2
smoothSolver:  Solving for e, Initial residual = 0.0127216, Final residual = 5.3147e-06, No Iterations 2
DICPCG:  Solving for p, Initial residual = 0.0146412, Final residual = 9.93457e-07, No Iterations 95
diagonal:  Solving for rho, Initial residual = 0, Final residual = 0, No Iterations 0
time step continuity errors : sum local = 1.33242e-08, global = -8.47393e-10, cumulative = 4.00234e-09
PIMPLE: Iteration 3
smoothSolver:  Solving for Ux, Initial residual = 0.000674432, Final residual = 2.19391e-07, No Iterations 2
smoothSolver:  Solving for Uy, Initial residual = 0.00337695, Final residual = 3.03687e-08, No Iterations 3
smoothSolver:  Solving for e, Initial residual = 0.00166634, Final residual = 5.70729e-07, No Iterations 2
DICPCG:  Solving for p, Initial residual = 0.00194788, Final residual = 9.8096e-07, No Iterations 84
diagonal:  Solving for rho, Initial residual = 0, Final residual = 0, No Iterations 0
time step continuity errors : sum local = 1.33086e-08, global = 6.72436e-10, cumulative = 4.67478e-09
smoothSolver:  Solving for k, Initial residual = 0.107542, Final residual = 1.47878e-07, No Iterations 3
bounding k, min: 0 max: 6.80599 average: 0.449987
ExecutionTime = 4.63 s  ClockTime = 5 s

Courant Number mean: 0.384356 max: 0.546297
Time = 0.07

PIMPLE: Iteration 1
diagonal:  Solving for rho, Initial residual = 0, Final residual = 0, No Iterations 0
smoothSolver:  Solving for Ux, Initial residual = 0.168832, Final residual = 8.24256e-05, No Iterations 2
smoothSolver:  Solving for Uy, Initial residual = 0.0784102, Final residual = 1.42861e-05, No Iterations 2
smoothSolver:  Solving for e, Initial residual = 0.0543176, Final residual = 3.86159e-05, No Iterations 2
DICPCG:  Solving for p, Initial residual = 0.0724594, Final residual = 7.81509e-07, No Iterations 113
diagonal:  Solving for rho, Initial residual = 0, Final residual = 0, No Iterations 0
time step continuity errors : sum local = 1.11274e-08, global = 3.48644e-11, cumulative = 4.70965e-09
PIMPLE: Iteration 2
smoothSolver:  Solving for Ux, Initial residual = 0.00285633, Final residual = 1.58622e-06, No Iterations 2
smoothSolver:  Solving for Uy, Initial residual = 0.00663842, Final residual = 2.67306e-06, No Iterations 2
smoothSolver:  Solving for e, Initial residual = 0.00916689, Final residual = 6.4477e-06, No Iterations 2
DICPCG:  Solving for p, Initial residual = 0.00990487, Final residual = 9.32049e-07, No Iterations 104
diagonal:  Solving for rho, Initial residual = 0, Final residual = 0, No Iterations 0
time step continuity errors : sum local = 1.38295e-08, global = -1.69043e-10, cumulative = 4.5406e-09
PIMPLE: Iteration 3
smoothSolver:  Solving for Ux, Initial residual = 0.000433754, Final residual = 2.55881e-07, No Iterations 2
smoothSolver:  Solving for Uy, Initial residual = 0.0025225, Final residual = 3.95228e-08, No Iterations 3
smoothSolver:  Solving for e, Initial residual = 0.00139103, Final residual = 8.75983e-07, No Iterations 2
DICPCG:  Solving for p, Initial residual = 0.00163189, Final residual = 9.67737e-07, No Iterations 84
diagonal:  Solving for rho, Initial residual = 0, Final residual = 0, No Iterations 0
time step continuity errors : sum local = 1.4418e-08, global = 1.09249e-09, cumulative = 5.6331e-09
smoothSolver:  Solving for k, Initial residual = 0.0821246, Final residual = 2.5556e-07, No Iterations 3
bounding k, min: 0 max: 9.79482 average: 0.538276
ExecutionTime = 4.86 s  ClockTime = 5 s

Courant Number mean: 0.411238 max: 0.663379
Time = 0.075

PIMPLE: Iteration 1
diagonal:  Solving for rho, Initial residual = 0, Final residual = 0, No Iterations 0
smoothSolver:  Solving for Ux, Initial residual = 0.125019, Final residual = 0.000101716, No Iterations 2
smoothSolver:  Solving for Uy, Initial residual = 0.0821156, Final residual = 3.36945e-05, No Iterations 2
smoothSolver:  Solving for e, Initial residual = 0.0520522, Final residual = 5.44881e-05, No Iterations 2
DICPCG:  Solving for p, Initial residual = 0.094314, Final residual = 9.72896e-07, No Iterations 119
diagonal:  Solving for rho, Initial residual = 0, Final residual = 0, No Iterations 0
time step continuity errors : sum local = 1.54514e-08, global = -3.77012e-10, cumulative = 5.25608e-09
PIMPLE: Iteration 2
smoothSolver:  Solving for Ux, Initial residual = 0.00321337, Final residual = 2.93818e-06, No Iterations 2
smoothSolver:  Solving for Uy, Initial residual = 0.00461813, Final residual = 2.20303e-06, No Iterations 2
smoothSolver:  Solving for e, Initial residual = 0.00683434, Final residual = 6.38282e-06, No Iterations 2
DICPCG:  Solving for p, Initial residual = 0.0064121, Final residual = 9.85525e-07, No Iterations 98
diagonal:  Solving for rho, Initial residual = 0, Final residual = 0, No Iterations 0
time step continuity errors : sum local = 1.6563e-08, global = 7.72825e-11, cumulative = 5.33337e-09
PIMPLE: Iteration 3
smoothSolver:  Solving for Ux, Initial residual = 0.000229904, Final residual = 1.67939e-07, No Iterations 2
smoothSolver:  Solving for Uy, Initial residual = 0.00300143, Final residual = 8.90826e-08, No Iterations 3
smoothSolver:  Solving for e, Initial residual = 0.00131744, Final residual = 5.697e-08, No Iterations 3
DICPCG:  Solving for p, Initial residual = 0.00141828, Final residual = 9.42038e-07, No Iterations 82
diagonal:  Solving for rho, Initial residual = 0, Final residual = 0, No Iterations 0
time step continuity errors : sum local = 1.58088e-08, global = 1.03828e-09, cumulative = 6.37165e-09
smoothSolver:  Solving for k, Initial residual = 0.0526574, Final residual = 4.12046e-07, No Iterations 3
bounding k, min: 0 max: 10.6496 average: 0.619293
ExecutionTime = 5.08 s  ClockTime = 6 s

Courant Number mean: 0.437815 max: 0.746182
Time = 0.08

PIMPLE: Iteration 1
diagonal:  Solving for rho, Initial residual = 0, Final residual = 0, No Iterations 0
smoothSolver:  Solving for Ux, Initial residual = 0.103368, Final residual = 0.000104645, No Iterations 2
smoothSolver:  Solving for Uy, Initial residual = 0.0746591, Final residual = 4.72419e-05, No Iterations 2
smoothSolver:  Solving for e, Initial residual = 0.0462629, Final residual = 5.73841e-05, No Iterations 2
DICPCG:  Solving for p, Initial residual = 0.100782, Final residual = 9.83118e-07, No Iterations 120
diagonal:  Solving for rho, Initial residual = 0, Final residual = 0, No Iterations 0
time step continuity errors : sum local = 1.72985e-08, global = -4.08483e-10, cumulative = 5.96317e-09
PIMPLE: Iteration 2
smoothSolver:  Solving for Ux, Initial residual = 0.002949, Final residual = 3.47726e-06, No Iterations 2
smoothSolver:  Solving for Uy, Initial residual = 0.00669352, Final residual = 5.0744e-06, No Iterations 2
smoothSolver:  Solving for e, Initial residual = 0.00605851, Final residual = 7.69188e-06, No Iterations 2
DICPCG:  Solving for p, Initial residual = 0.00663181, Final residual = 9.99612e-07, No Iterations 100
diagonal:  Solving for rho, Initial residual = 0, Final residual = 0, No Iterations 0
time step continuity errors : sum local = 1.83216e-08, global = -1.5879e-10, cumulative = 5.80438e-09
PIMPLE: Iteration 3
smoothSolver:  Solving for Ux, Initial residual = 0.000260862, Final residual = 2.24618e-07, No Iterations 2
smoothSolver:  Solving for Uy, Initial residual = 0.0035162, Final residual = 1.64544e-07, No Iterations 3
smoothSolver:  Solving for e, Initial residual = 0.000983041, Final residual = 7.14551e-08, No Iterations 3
DICPCG:  Solving for p, Initial residual = 0.00106696, Final residual = 9.22834e-07, No Iterations 74
diagonal:  Solving for rho, Initial residual = 0, Final residual = 0, No Iterations 0
time step continuity errors : sum local = 1.68248e-08, global = 1.26308e-09, cumulative = 7.06746e-09
smoothSolver:  Solving for k, Initial residual = 0.0607457, Final residual = 4.12409e-07, No Iterations 3
bounding k, min: 0 max: 9.70239 average: 0.696886
ExecutionTime = 5.7 s  ClockTime = 6 s

Courant Number mean: 0.464289 max: 0.788658
Time = 0.085

PIMPLE: Iteration 1
diagonal:  Solving for rho, Initial residual = 0, Final residual = 0, No Iterations 0
smoothSolver:  Solving for Ux, Initial residual = 0.0919057, Final residual = 9.55776e-05, No Iterations 2
smoothSolver:  Solving for Uy, Initial residual = 0.0571064, Final residual = 4.1618e-05, No Iterations 2
smoothSolver:  Solving for e, Initial residual = 0.0401848, Final residual = 5.0544e-05, No Iterations 2
DICPCG:  Solving for p, Initial residual = 0.0981495, Final residual = 9.98536e-07, No Iterations 118
diagonal:  Solving for rho, Initial residual = 0, Final residual = 0, No Iterations 0
time step continuity errors : sum local = 1.85976e-08, global = -1.4329e-10, cumulative = 6.92417e-09
PIMPLE: Iteration 2
smoothSolver:  Solving for Ux, Initial residual = 0.00195179, Final residual = 2.59056e-06, No Iterations 2
smoothSolver:  Solving for Uy, Initial residual = 0.00650393, Final residual = 6.45517e-06, No Iterations 2
smoothSolver:  Solving for e, Initial residual = 0.00708802, Final residual = 1.26067e-05, No Iterations 2
DICPCG:  Solving for p, Initial residual = 0.00805214, Final residual = 9.13183e-07, No Iterations 100
diagonal:  Solving for rho, Initial residual = 0, Final residual = 0, No Iterations 0
time step continuity errors : sum local = 1.71589e-08, global = -1.02185e-09, cumulative = 5.90232e-09
PIMPLE: Iteration 3
smoothSolver:  Solving for Ux, Initial residual = 0.000343149, Final residual = 4.29462e-07, No Iterations 2
smoothSolver:  Solving for Uy, Initial residual = 0.0034269, Final residual = 1.80667e-07, No Iterations 3
smoothSolver:  Solving for e, Initial residual = 0.000747498, Final residual = 6.52456e-08, No Iterations 3
DICPCG:  Solving for p, Initial residual = 0.000985431, Final residual = 9.6911e-07, No Iterations 75
diagonal:  Solving for rho, Initial residual = 0, Final residual = 0, No Iterations 0
time step continuity errors : sum local = 1.80886e-08, global = 1.6618e-09, cumulative = 7.56412e-09
smoothSolver:  Solving for k, Initial residual = 0.0626305, Final residual = 5.35557e-07, No Iterations 3
bounding k, min: 0 max: 8.23598 average: 0.775074
ExecutionTime = 5.92 s  ClockTime = 7 s

Courant Number mean: 0.490241 max: 0.798684
Time = 0.09

PIMPLE: Iteration 1
diagonal:  Solving for rho, Initial residual = 0, Final residual = 0, No Iterations 0
smoothSolver:  Solving for Ux, Initial residual = 0.0839394, Final residual = 9.52397e-05, No Iterations 2
smoothSolver:  Solving for Uy, Initial residual = 0.0430165, Final residual = 3.04688e-05, No Iterations 2
smoothSolver:  Solving for e, Initial residual = 0.0350028, Final residual = 4.40767e-05, No Iterations 2
DICPCG:  Solving for p, Initial residual = 0.0939262, Final residual = 8.41676e-07, No Iterations 108
diagonal:  Solving for rho, Initial residual = 0, Final residual = 0, No Iterations 0
time step continuity errors : sum local = 1.56599e-08, global = -1.03766e-09, cumulative = 6.52647e-09
PIMPLE: Iteration 2
smoothSolver:  Solving for Ux, Initial residual = 0.00191269, Final residual = 2.40977e-06, No Iterations 2
smoothSolver:  Solving for Uy, Initial residual = 0.00473357, Final residual = 4.90505e-06, No Iterations 2
smoothSolver:  Solving for e, Initial residual = 0.00650769, Final residual = 1.30777e-05, No Iterations 2
DICPCG:  Solving for p, Initial residual = 0.00742434, Final residual = 9.32321e-07, No Iterations 96
diagonal:  Solving for rho, Initial residual = 0, Final residual = 0, No Iterations 0
time step continuity errors : sum local = 1.68503e-08, global = -1.25251e-09, cumulative = 5.27396e-09
PIMPLE: Iteration 3
smoothSolver:  Solving for Ux, Initial residual = 0.000304892, Final residual = 4.32656e-07, No Iterations 2
smoothSolver:  Solving for Uy, Initial residual = 0.00276375, Final residual = 1.58982e-07, No Iterations 3
smoothSolver:  Solving for e, Initial residual = 0.000745344, Final residual = 8.06476e-08, No Iterations 3
DICPCG:  Solving for p, Initial residual = 0.00109459, Final residual = 9.87207e-07, No Iterations 78
diagonal:  Solving for rho, Initial residual = 0, Final residual = 0, No Iterations 0
time step continuity errors : sum local = 1.7728e-08, global = 1.64333e-09, cumulative = 6.91729e-09
smoothSolver:  Solving for k, Initial residual = 0.0550225, Final residual = 4.87164e-07, No Iterations 3
bounding k, min: 0 max: 8.0401 average: 0.853659
ExecutionTime = 6.14 s  ClockTime = 7 s

Courant Number mean: 0.514956 max: 0.794866
Time = 0.095

PIMPLE: Iteration 1
diagonal:  Solving for rho, Initial residual = 0, Final residual = 0, No Iterations 0
smoothSolver:  Solving for Ux, Initial residual = 0.0761071, Final residual = 9.99764e-05, No Iterations 2
smoothSolver:  Solving for Uy, Initial residual = 0.0432821, Final residual = 3.60812e-05, No Iterations 2
smoothSolver:  Solving for e, Initial residual = 0.0310801, Final residual = 4.39835e-05, No Iterations 2
DICPCG:  Solving for p, Initial residual = 0.103819, Final residual = 7.65499e-07, No Iterations 111
diagonal:  Solving for rho, Initial residual = 0, Final residual = 0, No Iterations 0
time step continuity errors : sum local = 1.34085e-08, global = 6.2206e-10, cumulative = 7.53935e-09
PIMPLE: Iteration 2
smoothSolver:  Solving for Ux, Initial residual = 0.00227753, Final residual = 3.27915e-06, No Iterations 2
smoothSolver:  Solving for Uy, Initial residual = 0.00345842, Final residual = 3.30275e-06, No Iterations 2
smoothSolver:  Solving for e, Initial residual = 0.00517805, Final residual = 1.04689e-05, No Iterations 2
DICPCG:  Solving for p, Initial residual = 0.00668146, Final residual = 9.74408e-07, No Iterations 92
diagonal:  Solving for rho, Initial residual = 0, Final residual = 0, No Iterations 0
time step continuity errors : sum local = 1.59362e-08, global = -6.84574e-10, cumulative = 6.85478e-09
PIMPLE: Iteration 3
smoothSolver:  Solving for Ux, Initial residual = 0.000177739, Final residual = 2.24676e-07, No Iterations 2
smoothSolver:  Solving for Uy, Initial residual = 0.00232522, Final residual = 1.32665e-07, No Iterations 3
smoothSolver:  Solving for e, Initial residual = 0.000653406, Final residual = 7.98977e-08, No Iterations 3
DICPCG:  Solving for p, Initial residual = 0.00107934, Final residual = 8.39786e-07, No Iterations 82
diagonal:  Solving for rho, Initial residual = 0, Final residual = 0, No Iterations 0
time step continuity errors : sum local = 1.36556e-08, global = 9.01881e-10, cumulative = 7.75666e-09
smoothSolver:  Solving for k, Initial residual = 0.0504335, Final residual = 5.19068e-07, No Iterations 3
bounding k, min: 0 max: 7.3521 average: 0.928986
ExecutionTime = 6.36 s  ClockTime = 7 s

Courant Number mean: 0.537596 max: 0.79364
Time = 0.1

PIMPLE: Iteration 1
diagonal:  Solving for rho, Initial residual = 0, Final residual = 0, No Iterations 0
smoothSolver:  Solving for Ux, Initial residual = 0.0664289, Final residual = 9.1706e-05, No Iterations 2
smoothSolver:  Solving for Uy, Initial residual = 0.0449624, Final residual = 4.42942e-05, No Iterations 2
smoothSolver:  Solving for e, Initial residual = 0.0302947, Final residual = 4.9979e-05, No Iterations 2
DICPCG:  Solving for p, Initial residual = 0.12884, Final residual = 6.0817e-07, No Iterations 110
diagonal:  Solving for rho, Initial residual = 0, Final residual = 0, No Iterations 0
time step continuity errors : sum local = 9.45592e-09, global = 7.78367e-10, cumulative = 8.53503e-09
PIMPLE: Iteration 2
smoothSolver:  Solving for Ux, Initial residual = 0.00256017, Final residual = 4.09221e-06, No Iterations 2
smoothSolver:  Solving for Uy, Initial residual = 0.0044465, Final residual = 4.83176e-06, No Iterations 2
smoothSolver:  Solving for e, Initial residual = 0.00421497, Final residual = 7.11082e-06, No Iterations 2
DICPCG:  Solving for p, Initial residual = 0.0071858, Final residual = 9.93293e-07, No Iterations 96
diagonal:  Solving for rho, Initial residual = 0, Final residual = 0, No Iterations 0
time step continuity errors : sum local = 1.37664e-08, global = -1.68468e-10, cumulative = 8.36656e-09
PIMPLE: Iteration 3
smoothSolver:  Solving for Ux, Initial residual = 0.000209151, Final residual = 2.87127e-07, No Iterations 2
smoothSolver:  Solving for Uy, Initial residual = 0.00294385, Final residual = 1.70704e-07, No Iterations 3
smoothSolver:  Solving for e, Initial residual = 0.000577463, Final residual = 6.82215e-08, No Iterations 3
DICPCG:  Solving for p, Initial residual = 0.00119259, Final residual = 8.77258e-07, No Iterations 74
diagonal:  Solving for rho, Initial residual = 0, Final residual = 0, No Iterations 0
time step continuity errors : sum local = 1.20962e-08, global = 1.02721e-09, cumulative = 9.39377e-09
smoothSolver:  Solving for k, Initial residual = 0.044994, Final residual = 5.69519e-07, No Iterations 3
bounding k, min: -3.63133e-06 max: 6.65645 average: 0.996843
ExecutionTime = 6.99 s  ClockTime = 8 s

Courant Number mean: 0.557267 max: 0.803259
Time = 0.105

PIMPLE: Iteration 1
diagonal:  Solving for rho, Initial residual = 0, Final residual = 0, No Iterations 0
smoothSolver:  Solving for Ux, Initial residual = 0.0582638, Final residual = 8.1556e-05, No Iterations 2
smoothSolver:  Solving for Uy, Initial residual = 0.0420734, Final residual = 4.27445e-05, No Iterations 2
smoothSolver:  Solving for e, Initial residual = 0.0291359, Final residual = 5.0729e-05, No Iterations 2
DICPCG:  Solving for p, Initial residual = 0.153083, Final residual = 7.21862e-07, No Iterations 110
diagonal:  Solving for rho, Initial residual = 0, Final residual = 0, No Iterations 0
time step continuity errors : sum local = 9.35061e-09, global = 9.77345e-10, cumulative = 1.03711e-08
PIMPLE: Iteration 2
smoothSolver:  Solving for Ux, Initial residual = 0.00225261, Final residual = 3.68674e-06, No Iterations 2
smoothSolver:  Solving for Uy, Initial residual = 0.0049165, Final residual = 5.3515e-06, No Iterations 2
smoothSolver:  Solving for e, Initial residual = 0.0044618, Final residual = 7.96508e-06, No Iterations 2
DICPCG:  Solving for p, Initial residual = 0.0104687, Final residual = 9.24661e-07, No Iterations 97
diagonal:  Solving for rho, Initial residual = 0, Final residual = 0, No Iterations 0
time step continuity errors : sum local = 1.00214e-08, global = -7.73532e-10, cumulative = 9.59758e-09
PIMPLE: Iteration 3
smoothSolver:  Solving for Ux, Initial residual = 0.000289746, Final residual = 4.28858e-07, No Iterations 2
smoothSolver:  Solving for Uy, Initial residual = 0.00293228, Final residual = 1.62368e-07, No Iterations 3
smoothSolver:  Solving for e, Initial residual = 0.000509482, Final residual = 9.96634e-07, No Iterations 2
DICPCG:  Solving for p, Initial residual = 0.00148095, Final residual = 8.69928e-07, No Iterations 82
diagonal:  Solving for rho, Initial residual = 0, Final residual = 0, No Iterations 0
time step continuity errors : sum local = 9.38119e-09, global = 9.76338e-10, cumulative = 1.05739e-08
smoothSolver:  Solving for k, Initial residual = 0.0417605, Final residual = 5.78753e-07, No Iterations 3
bounding k, min: 0 max: 6.44085 average: 1.0543
ExecutionTime = 7.22 s  ClockTime = 8 s

Courant Number mean: 0.573003 max: 0.822579
Time = 0.11

PIMPLE: Iteration 1
diagonal:  Solving for rho, Initial residual = 0, Final residual = 0, No Iterations 0
smoothSolver:  Solving for Ux, Initial residual = 0.0495996, Final residual = 6.92128e-05, No Iterations 2
smoothSolver:  Solving for Uy, Initial residual = 0.0377785, Final residual = 3.60908e-05, No Iterations 2
smoothSolver:  Solving for e, Initial residual = 0.0268093, Final residual = 4.64434e-05, No Iterations 2
DICPCG:  Solving for p, Initial residual = 0.185656, Final residual = 8.68736e-07, No Iterations 115
diagonal:  Solving for rho, Initial residual = 0, Final residual = 0, No Iterations 0
time step continuity errors : sum local = 8.65099e-09, global = 3.19185e-10, cumulative = 1.08931e-08
PIMPLE: Iteration 2
smoothSolver:  Solving for Ux, Initial residual = 0.00186714, Final residual = 2.85755e-06, No Iterations 2
smoothSolver:  Solving for Uy, Initial residual = 0.00419058, Final residual = 4.33768e-06, No Iterations 2
smoothSolver:  Solving for e, Initial residual = 0.00422421, Final residual = 8.2066e-06, No Iterations 2
DICPCG:  Solving for p, Initial residual = 0.0138538, Final residual = 9.81242e-07, No Iterations 97
diagonal:  Solving for rho, Initial residual = 0, Final residual = 0, No Iterations 0
time step continuity errors : sum local = 7.33805e-09, global = -8.14032e-10, cumulative = 1.00791e-08
PIMPLE: Iteration 3
smoothSolver:  Solving for Ux, Initial residual = 0.0002751, Final residual = 3.9626e-07, No Iterations 2
smoothSolver:  Solving for Uy, Initial residual = 0.00240367, Final residual = 1.24122e-07, No Iterations 3
smoothSolver:  Solving for e, Initial residual = 0.000529006, Final residual = 5.51223e-08, No Iterations 3
DICPCG:  Solving for p, Initial residual = 0.00227009, Final residual = 9.87953e-07, No Iterations 86
diagonal:  Solving for rho, Initial residual = 0, Final residual = 0, No Iterations 0
time step continuity errors : sum local = 7.34734e-09, global = 8.12766e-10, cumulative = 1.08918e-08
smoothSolver:  Solving for k, Initial residual = 0.0386568, Final residual = 5.46754e-07, No Iterations 3
bounding k, min: 0 max: 6.20246 average: 1.09923
ExecutionTime = 7.44 s  ClockTime = 8 s

Courant Number mean: 0.583786 max: 0.844057
Time = 0.115

PIMPLE: Iteration 1
diagonal:  Solving for rho, Initial residual = 0, Final residual = 0, No Iterations 0
smoothSolver:  Solving for Ux, Initial residual = 0.0391401, Final residual = 5.58642e-05, No Iterations 2
smoothSolver:  Solving for Uy, Initial residual = 0.0350978, Final residual = 3.28792e-05, No Iterations 2
smoothSolver:  Solving for e, Initial residual = 0.0247023, Final residual = 4.15768e-05, No Iterations 2
DICPCG:  Solving for p, Initial residual = 0.272103, Final residual = 9.91565e-07, No Iterations 119
diagonal:  Solving for rho, Initial residual = 0, Final residual = 0, No Iterations 0
time step continuity errors : sum local = 6.72713e-09, global = -2.74767e-10, cumulative = 1.06171e-08
PIMPLE: Iteration 2
smoothSolver:  Solving for Ux, Initial residual = 0.00229675, Final residual = 3.11717e-06, No Iterations 2
smoothSolver:  Solving for Uy, Initial residual = 0.00332904, Final residual = 3.46321e-06, No Iterations 2
smoothSolver:  Solving for e, Initial residual = 0.00329145, Final residual = 6.30286e-06, No Iterations 2
DICPCG:  Solving for p, Initial residual = 0.0203634, Final residual = 8.96435e-07, No Iterations 106
diagonal:  Solving for rho, Initial residual = 0, Final residual = 0, No Iterations 0
time step continuity errors : sum local = 3.53372e-09, global = -3.07043e-10, cumulative = 1.031e-08
PIMPLE: Iteration 3
smoothSolver:  Solving for Ux, Initial residual = 0.000213404, Final residual = 2.93784e-07, No Iterations 2
smoothSolver:  Solving for Uy, Initial residual = 0.00229723, Final residual = 1.37124e-07, No Iterations 3
smoothSolver:  Solving for e, Initial residual = 0.0005158, Final residual = 5.1199e-08, No Iterations 3
DICPCG:  Solving for p, Initial residual = 0.00425222, Final residual = 9.84004e-07, No Iterations 91
diagonal:  Solving for rho, Initial residual = 0, Final residual = 0, No Iterations 0
time step continuity errors : sum local = 3.85513e-09, global = 3.07663e-10, cumulative = 1.06177e-08
smoothSolver:  Solving for k, Initial residual = 0.0352205, Final residual = 5.2686e-07, No Iterations 3
bounding k, min: 0 max: 5.88113 average: 1.12936
ExecutionTime = 7.67 s  ClockTime = 8 s

Courant Number mean: 0.588682 max: 0.860938
Time = 0.12

PIMPLE: Iteration 1
diagonal:  Solving for rho, Initial residual = 0, Final residual = 0, No Iterations 0
smoothSolver:  Solving for Ux, Initial residual = 0.028149, Final residual = 4.12016e-05, No Iterations 2
smoothSolver:  Solving for Uy, Initial residual = 0.032265, Final residual = 2.93173e-05, No Iterations 2
smoothSolver:  Solving for e, Initial residual = 0.0236491, Final residual = 3.9349e-05, No Iterations 2
DICPCG:  Solving for p, Initial residual = 0.441764, Final residual = 9.18285e-07, No Iterations 124
diagonal:  Solving for rho, Initial residual = 0, Final residual = 0, No Iterations 0
time step continuity errors : sum local = 3.82816e-09, global = -2.18101e-10, cumulative = 1.03996e-08
PIMPLE: Iteration 2
smoothSolver:  Solving for Ux, Initial residual = 0.00248554, Final residual = 3.01256e-06, No Iterations 2
smoothSolver:  Solving for Uy, Initial residual = 0.00317609, Final residual = 3.3154e-06, No Iterations 2
smoothSolver:  Solving for e, Initial residual = 0.00220975, Final residual = 4.17749e-06, No Iterations 2
DICPCG:  Solving for p, Initial residual = 0.0402099, Final residual = 8.62618e-07, No Iterations 108
diagonal:  Solving for rho, Initial residual = 0, Final residual = 0, No Iterations 0
time step continuity errors : sum local = 1.24707e-09, global = 1.75234e-10, cumulative = 1.05748e-08
PIMPLE: Iteration 3
smoothSolver:  Solving for Ux, Initial residual = 0.000170031, Final residual = 2.47135e-07, No Iterations 2
smoothSolver:  Solving for Uy, Initial residual = 0.00222284, Final residual = 1.38425e-07, No Iterations 3
smoothSolver:  Solving for e, Initial residual = 0.000470744, Final residual = 8.44364e-07, No Iterations 2
DICPCG:  Solving for p, Initial residual = 0.011188, Final residual = 9.20798e-07, No Iterations 101
diagonal:  Solving for rho, Initial residual = 0, Final residual = 0, No Iterations 0
time step continuity errors : sum local = 1.29053e-09, global = 2.21166e-10, cumulative = 1.0796e-08
smoothSolver:  Solving for k, Initial residual = 0.0327668, Final residual = 5.1144e-07, No Iterations 3
bounding k, min: 0 max: 5.53417 average: 1.14254
ExecutionTime = 8.31 s  ClockTime = 9 s

Courant Number mean: 0.587018 max: 0.870818
Time = 0.125

PIMPLE: Iteration 1
diagonal:  Solving for rho, Initial residual = 0, Final residual = 0, No Iterations 0
smoothSolver:  Solving for Ux, Initial residual = 0.021922, Final residual = 3.2514e-05, No Iterations 2
smoothSolver:  Solving for Uy, Initial residual = 0.027373, Final residual = 2.40373e-05, No Iterations 2
smoothSolver:  Solving for e, Initial residual = 0.022589, Final residual = 3.65817e-05, No Iterations 2
DICPCG:  Solving for p, Initial residual = 0.665472, Final residual = 9.96905e-07, No Iterations 130
diagonal:  Solving for rho, Initial residual = 0, Final residual = 0, No Iterations 0
time step continuity errors : sum local = 2.75482e-09, global = -1.02064e-10, cumulative = 1.06939e-08
PIMPLE: Iteration 2
smoothSolver:  Solving for Ux, Initial residual = 0.00233226, Final residual = 2.48873e-06, No Iterations 2
smoothSolver:  Solving for Uy, Initial residual = 0.0032675, Final residual = 2.98168e-06, No Iterations 2
smoothSolver:  Solving for e, Initial residual = 0.00196365, Final residual = 3.77475e-06, No Iterations 2
DICPCG:  Solving for p, Initial residual = 0.0186464, Final residual = 6.35753e-07, No Iterations 107
diagonal:  Solving for rho, Initial residual = 0, Final residual = 0, No Iterations 0
time step continuity errors : sum local = 2.16486e-09, global = 7.15176e-11, cumulative = 1.07654e-08
PIMPLE: Iteration 3
smoothSolver:  Solving for Ux, Initial residual = 0.000159591, Final residual = 2.34123e-07, No Iterations 2
smoothSolver:  Solving for Uy, Initial residual = 0.00200307, Final residual = 1.20083e-07, No Iterations 3
smoothSolver:  Solving for e, Initial residual = 0.000404597, Final residual = 6.60574e-07, No Iterations 2
DICPCG:  Solving for p, Initial residual = 0.00417378, Final residual = 9.33675e-07, No Iterations 92
diagonal:  Solving for rho, Initial residual = 0, Final residual = 0, No Iterations 0
time step continuity errors : sum local = 3.13327e-09, global = 2.55247e-10, cumulative = 1.10207e-08
smoothSolver:  Solving for k, Initial residual = 0.0331012, Final residual = 4.98727e-07, No Iterations 3
bounding k, min: 0 max: 5.41836 average: 1.13788
ExecutionTime = 8.55 s  ClockTime = 9 s

Courant Number mean: 0.578587 max: 0.874355
Time = 0.13

PIMPLE: Iteration 1
diagonal:  Solving for rho, Initial residual = 0, Final residual = 0, No Iterations 0
smoothSolver:  Solving for Ux, Initial residual = 0.0297986, Final residual = 3.65209e-05, No Iterations 2
smoothSolver:  Solving for Uy, Initial residual = 0.0210744, Final residual = 1.81692e-05, No Iterations 2
smoothSolver:  Solving for e, Initial residual = 0.0213426, Final residual = 3.31578e-05, No Iterations 2
DICPCG:  Solving for p, Initial residual = 0.415339, Final residual = 9.25027e-07, No Iterations 116
diagonal:  Solving for rho, Initial residual = 0, Final residual = 0, No Iterations 0
time step continuity errors : sum local = 4.02869e-09, global = 1.51186e-10, cumulative = 1.11719e-08
PIMPLE: Iteration 2
smoothSolver:  Solving for Ux, Initial residual = 0.00199655, Final residual = 2.01485e-06, No Iterations 2
smoothSolver:  Solving for Uy, Initial residual = 0.00306776, Final residual = 2.34381e-06, No Iterations 2
smoothSolver:  Solving for e, Initial residual = 0.00246852, Final residual = 3.71433e-06, No Iterations 2
DICPCG:  Solving for p, Initial residual = 0.01293, Final residual = 9.87617e-07, No Iterations 103
diagonal:  Solving for rho, Initial residual = 0, Final residual = 0, No Iterations 0
time step continuity errors : sum local = 6.18502e-09, global = 3.55596e-10, cumulative = 1.15275e-08
PIMPLE: Iteration 3
smoothSolver:  Solving for Ux, Initial residual = 0.000198329, Final residual = 2.18022e-07, No Iterations 2
smoothSolver:  Solving for Uy, Initial residual = 0.00172152, Final residual = 1.00463e-07, No Iterations 3
smoothSolver:  Solving for e, Initial residual = 0.000331345, Final residual = 5.1456e-07, No Iterations 2
DICPCG:  Solving for p, Initial residual = 0.00185014, Final residual = 9.17461e-07, No Iterations 83
diagonal:  Solving for rho, Initial residual = 0, Final residual = 0, No Iterations 0
time step continuity errors : sum local = 5.6801e-09, global = 2.36403e-10, cumulative = 1.17639e-08
smoothSolver:  Solving for k, Initial residual = 0.0345908, Final residual = 4.72026e-07, No Iterations 3
bounding k, min: 0 max: 5.24984 average: 1.11654
ExecutionTime = 8.77 s  ClockTime = 10 s

Courant Number mean: 0.563829 max: 0.873349
Time = 0.135

PIMPLE: Iteration 1
diagonal:  Solving for rho, Initial residual = 0, Final residual = 0, No Iterations 0
smoothSolver:  Solving for Ux, Initial residual = 0.0418091, Final residual = 3.98577e-05, No Iterations 2
smoothSolver:  Solving for Uy, Initial residual = 0.0165954, Final residual = 1.52912e-05, No Iterations 2
smoothSolver:  Solving for e, Initial residual = 0.0200562, Final residual = 2.97581e-05, No Iterations 2
DICPCG:  Solving for p, Initial residual = 0.257008, Final residual = 9.86524e-07, No Iterations 119
diagonal:  Solving for rho, Initial residual = 0, Final residual = 0, No Iterations 0
time step continuity errors : sum local = 6.76332e-09, global = -2.74743e-11, cumulative = 1.17364e-08
PIMPLE: Iteration 2
smoothSolver:  Solving for Ux, Initial residual = 0.00160279, Final residual = 1.79521e-06, No Iterations 2
smoothSolver:  Solving for Uy, Initial residual = 0.00251845, Final residual = 1.6581e-06, No Iterations 2
smoothSolver:  Solving for e, Initial residual = 0.00276733, Final residual = 3.1186e-06, No Iterations 2
DICPCG:  Solving for p, Initial residual = 0.010585, Final residual = 9.99592e-07, No Iterations 102
diagonal:  Solving for rho, Initial residual = 0, Final residual = 0, No Iterations 0
time step continuity errors : sum local = 8.4258e-09, global = 5.63401e-10, cumulative = 1.22998e-08
PIMPLE: Iteration 3
smoothSolver:  Solving for Ux, Initial residual = 0.000211158, Final residual = 1.76681e-07, No Iterations 2
smoothSolver:  Solving for Uy, Initial residual = 0.00141179, Final residual = 7.99242e-08, No Iterations 3
smoothSolver:  Solving for e, Initial residual = 0.000265612, Final residual = 3.92555e-07, No Iterations 2
DICPCG:  Solving for p, Initial residual = 0.00117217, Final residual = 9.89292e-07, No Iterations 77
diagonal:  Solving for rho, Initial residual = 0, Final residual = 0, No Iterations 0
time step continuity errors : sum local = 8.25847e-09, global = 6.67482e-10, cumulative = 1.29673e-08
smoothSolver:  Solving for k, Initial residual = 0.0368804, Final residual = 4.36503e-07, No Iterations 3
bounding k, min: 0 max: 5.0257 average: 1.08147
ExecutionTime = 8.99 s  ClockTime = 10 s

Courant Number mean: 0.543841 max: 0.868903
Time = 0.14

PIMPLE: Iteration 1
diagonal:  Solving for rho, Initial residual = 0, Final residual = 0, No Iterations 0
smoothSolver:  Solving for Ux, Initial residual = 0.0528379, Final residual = 4.99926e-05, No Iterations 2
smoothSolver:  Solving for Uy, Initial residual = 0.0153353, Final residual = 1.3716e-05, No Iterations 2
smoothSolver:  Solving for e, Initial residual = 0.0187975, Final residual = 2.64276e-05, No Iterations 2
DICPCG:  Solving for p, Initial residual = 0.193928, Final residual = 9.38342e-07, No Iterations 107
diagonal:  Solving for rho, Initial residual = 0, Final residual = 0, No Iterations 0
time step continuity errors : sum local = 8.23066e-09, global = -4.33124e-11, cumulative = 1.2924e-08
PIMPLE: Iteration 2
smoothSolver:  Solving for Ux, Initial residual = 0.00120126, Final residual = 1.70496e-06, No Iterations 2
smoothSolver:  Solving for Uy, Initial residual = 0.00173376, Final residual = 1.10015e-06, No Iterations 2
smoothSolver:  Solving for e, Initial residual = 0.002631, Final residual = 2.32431e-06, No Iterations 2
DICPCG:  Solving for p, Initial residual = 0.00870203, Final residual = 9.85211e-07, No Iterations 100
diagonal:  Solving for rho, Initial residual = 0, Final residual = 0, No Iterations 0
time step continuity errors : sum local = 9.71109e-09, global = 7.64908e-10, cumulative = 1.36889e-08
PIMPLE: Iteration 3
smoothSolver:  Solving for Ux, Initial residual = 0.000184032, Final residual = 1.23057e-07, No Iterations 2
smoothSolver:  Solving for Uy, Initial residual = 0.00117651, Final residual = 6.67007e-08, No Iterations 3
smoothSolver:  Solving for e, Initial residual = 0.000266965, Final residual = 3.44702e-07, No Iterations 2
DICPCG:  Solving for p, Initial residual = 0.00106333, Final residual = 9.10413e-07, No Iterations 78
diagonal:  Solving for rho, Initial residual = 0, Final residual = 0, No Iterations 0
time step continuity errors : sum local = 8.90628e-09, global = 4.56255e-10, cumulative = 1.41451e-08
smoothSolver:  Solving for k, Initial residual = 0.0394158, Final residual = 4.03812e-07, No Iterations 3
bounding k, min: 0 max: 4.75824 average: 1.03626
ExecutionTime = 9.62 s  ClockTime = 10 s

Courant Number mean: 0.520209 max: 0.860776
Time = 0.145

PIMPLE: Iteration 1
diagonal:  Solving for rho, Initial residual = 0, Final residual = 0, No Iterations 0
smoothSolver:  Solving for Ux, Initial residual = 0.0603858, Final residual = 5.87822e-05, No Iterations 2
smoothSolver:  Solving for Uy, Initial residual = 0.0166892, Final residual = 1.24683e-05, No Iterations 2
smoothSolver:  Solving for e, Initial residual = 0.0178534, Final residual = 2.336e-05, No Iterations 2
DICPCG:  Solving for p, Initial residual = 0.159299, Final residual = 8.89191e-07, No Iterations 111
diagonal:  Solving for rho, Initial residual = 0, Final residual = 0, No Iterations 0
time step continuity errors : sum local = 9.04443e-09, global = 1.30726e-10, cumulative = 1.42759e-08
PIMPLE: Iteration 2
smoothSolver:  Solving for Ux, Initial residual = 0.00170236, Final residual = 1.8766e-06, No Iterations 2
smoothSolver:  Solving for Uy, Initial residual = 0.0012547, Final residual = 9.18303e-07, No Iterations 2
smoothSolver:  Solving for e, Initial residual = 0.00210966, Final residual = 1.67599e-06, No Iterations 2
DICPCG:  Solving for p, Initial residual = 0.00637387, Final residual = 8.90228e-07, No Iterations 95
diagonal:  Solving for rho, Initial residual = 0, Final residual = 0, No Iterations 0
time step continuity errors : sum local = 9.60702e-09, global = 4.56033e-10, cumulative = 1.47319e-08
PIMPLE: Iteration 3
smoothSolver:  Solving for Ux, Initial residual = 0.000129017, Final residual = 8.14326e-08, No Iterations 2
smoothSolver:  Solving for Uy, Initial residual = 0.00109393, Final residual = 5.60516e-08, No Iterations 3
smoothSolver:  Solving for e, Initial residual = 0.000271865, Final residual = 2.90223e-07, No Iterations 2
DICPCG:  Solving for p, Initial residual = 0.000988654, Final residual = 8.73468e-07, No Iterations 76
diagonal:  Solving for rho, Initial residual = 0, Final residual = 0, No Iterations 0
time step continuity errors : sum local = 9.37336e-09, global = 5.62632e-10, cumulative = 1.52945e-08
smoothSolver:  Solving for k, Initial residual = 0.0420535, Final residual = 3.68694e-07, No Iterations 3
bounding k, min: 0 max: 4.45834 average: 0.984166
ExecutionTime = 9.83 s  ClockTime = 11 s

Courant Number mean: 0.494675 max: 0.847973
Time = 0.15

PIMPLE: Iteration 1
diagonal:  Solving for rho, Initial residual = 0, Final residual = 0, No Iterations 0
smoothSolver:  Solving for Ux, Initial residual = 0.0646893, Final residual = 6.50324e-05, No Iterations 2
smoothSolver:  Solving for Uy, Initial residual = 0.0169716, Final residual = 1.0669e-05, No Iterations 2
smoothSolver:  Solving for e, Initial residual = 0.017103, Final residual = 2.0302e-05, No Iterations 2
DICPCG:  Solving for p, Initial residual = 0.135408, Final residual = 9.23272e-07, No Iterations 105
diagonal:  Solving for rho, Initial residual = 0, Final residual = 0, No Iterations 0
time step continuity errors : sum local = 1.02967e-08, global = -1.33816e-11, cumulative = 1.52811e-08
PIMPLE: Iteration 2
smoothSolver:  Solving for Ux, Initial residual = 0.00215713, Final residual = 1.79343e-06, No Iterations 2
smoothSolver:  Solving for Uy, Initial residual = 0.00124779, Final residual = 8.69697e-07, No Iterations 2
smoothSolver:  Solving for e, Initial residual = 0.00153402, Final residual = 1.30466e-06, No Iterations 2
DICPCG:  Solving for p, Initial residual = 0.00522248, Final residual = 9.53599e-07, No Iterations 93
diagonal:  Solving for rho, Initial residual = 0, Final residual = 0, No Iterations 0
time step continuity errors : sum local = 1.09636e-08, global = 2.12904e-10, cumulative = 1.54941e-08
PIMPLE: Iteration 3
smoothSolver:  Solving for Ux, Initial residual = 0.000109233, Final residual = 9.14951e-08, No Iterations 2
smoothSolver:  Solving for Uy, Initial residual = 0.00113314, Final residual = 4.60868e-08, No Iterations 3
smoothSolver:  Solving for e, Initial residual = 0.000236249, Final residual = 2.00093e-07, No Iterations 2
DICPCG:  Solving for p, Initial residual = 0.00084018, Final residual = 9.74258e-07, No Iterations 70
diagonal:  Solving for rho, Initial residual = 0, Final residual = 0, No Iterations 0
time step continuity errors : sum local = 1.11453e-08, global = 1.09688e-09, cumulative = 1.65909e-08
smoothSolver:  Solving for k, Initial residual = 0.0446451, Final residual = 3.25088e-07, No Iterations 3
bounding k, min: 0 max: 4.12978 average: 0.92783
ExecutionTime = 10.05 s  ClockTime = 11 s

Courant Number mean: 0.468758 max: 0.82849
Time = 0.155

PIMPLE: Iteration 1
diagonal:  Solving for rho, Initial residual = 0, Final residual = 0, No Iterations 0
smoothSolver:  Solving for Ux, Initial residual = 0.0671086, Final residual = 6.94242e-05, No Iterations 2
smoothSolver:  Solving for Uy, Initial residual = 0.015623, Final residual = 8.4625e-06, No Iterations 2
smoothSolver:  Solving for e, Initial residual = 0.0163996, Final residual = 1.71325e-05, No Iterations 2
DICPCG:  Solving for p, Initial residual = 0.119196, Final residual = 8.25116e-07, No Iterations 102
diagonal:  Solving for rho, Initial residual = 0, Final residual = 0, No Iterations 0
time step continuity errors : sum local = 9.72171e-09, global = 4.65211e-10, cumulative = 1.70561e-08
PIMPLE: Iteration 2
smoothSolver:  Solving for Ux, Initial residual = 0.00220816, Final residual = 1.52882e-06, No Iterations 2
smoothSolver:  Solving for Uy, Initial residual = 0.00140093, Final residual = 8.06305e-07, No Iterations 2
smoothSolver:  Solving for e, Initial residual = 0.00157725, Final residual = 1.38716e-06, No Iterations 2
DICPCG:  Solving for p, Initial residual = 0.00524613, Final residual = 9.66347e-07, No Iterations 88
diagonal:  Solving for rho, Initial residual = 0, Final residual = 0, No Iterations 0
time step continuity errors : sum local = 1.14866e-08, global = -1.12967e-09, cumulative = 1.59265e-08
PIMPLE: Iteration 3
smoothSolver:  Solving for Ux, Initial residual = 0.000125889, Final residual = 8.84754e-08, No Iterations 2
smoothSolver:  Solving for Uy, Initial residual = 0.00115029, Final residual = 9.26443e-07, No Iterations 2
smoothSolver:  Solving for e, Initial residual = 0.000194398, Final residual = 1.54946e-07, No Iterations 2
DICPCG:  Solving for p, Initial residual = 0.000719816, Final residual = 9.54926e-07, No Iterations 67
diagonal:  Solving for rho, Initial residual = 0, Final residual = 0, No Iterations 0
time step continuity errors : sum local = 1.13013e-08, global = 7.44763e-10, cumulative = 1.66712e-08
smoothSolver:  Solving for k, Initial residual = 0.0467095, Final residual = 2.76896e-07, No Iterations 3
bounding k, min: 0 max: 3.77205 average: 0.869617
ExecutionTime = 10.26 s  ClockTime = 11 s

Courant Number mean: 0.44344 max: 0.800646
Time = 0.16

PIMPLE: Iteration 1
diagonal:  Solving for rho, Initial residual = 0, Final residual = 0, No Iterations 0
smoothSolver:  Solving for Ux, Initial residual = 0.0697227, Final residual = 7.18161e-05, No Iterations 2
smoothSolver:  Solving for Uy, Initial residual = 0.0139986, Final residual = 6.46672e-06, No Iterations 2
smoothSolver:  Solving for e, Initial residual = 0.0154096, Final residual = 1.38197e-05, No Iterations 2
DICPCG:  Solving for p, Initial residual = 0.102136, Final residual = 9.57739e-07, No Iterations 102
diagonal:  Solving for rho, Initial residual = 0, Final residual = 0, No Iterations 0
time step continuity errors : sum local = 1.15256e-08, global = -3.07683e-10, cumulative = 1.63636e-08
PIMPLE: Iteration 2
smoothSolver:  Solving for Ux, Initial residual = 0.00196682, Final residual = 1.21968e-06, No Iterations 2
smoothSolver:  Solving for Uy, Initial residual = 0.00154923, Final residual = 7.79441e-07, No Iterations 2
smoothSolver:  Solving for e, Initial residual = 0.00167124, Final residual = 1.21178e-06, No Iterations 2
DICPCG:  Solving for p, Initial residual = 0.00572589, Final residual = 9.98994e-07, No Iterations 91
diagonal:  Solving for rho, Initial residual = 0, Final residual = 0, No Iterations 0
time step continuity errors : sum local = 1.19017e-08, global = -4.6193e-10, cumulative = 1.59016e-08
PIMPLE: Iteration 3
smoothSolver:  Solving for Ux, Initial residual = 0.000169011, Final residual = 7.62074e-08, No Iterations 2
smoothSolver:  Solving for Uy, Initial residual = 0.00108448, Final residual = 7.61061e-07, No Iterations 2
smoothSolver:  Solving for e, Initial residual = 0.00016066, Final residual = 1.3192e-07, No Iterations 2
DICPCG:  Solving for p, Initial residual = 0.000658829, Final residual = 9.08683e-07, No Iterations 68
diagonal:  Solving for rho, Initial residual = 0, Final residual = 0, No Iterations 0
time step continuity errors : sum local = 1.07929e-08, global = 3.10361e-10, cumulative = 1.6212e-08
smoothSolver:  Solving for k, Initial residual = 0.0479396, Final residual = 2.19158e-07, No Iterations 3
bounding k, min: 0 max: 3.38671 average: 0.811864
ExecutionTime = 10.89 s  ClockTime = 12 s

Courant Number mean: 0.419046 max: 0.763151
Time = 0.165

PIMPLE: Iteration 1
diagonal:  Solving for rho, Initial residual = 0, Final residual = 0, No Iterations 0
smoothSolver:  Solving for Ux, Initial residual = 0.0773649, Final residual = 7.06167e-05, No Iterations 2
smoothSolver:  Solving for Uy, Initial residual = 0.0133199, Final residual = 5.12584e-06, No Iterations 2
smoothSolver:  Solving for e, Initial residual = 0.014141, Final residual = 1.04897e-05, No Iterations 2
DICPCG:  Solving for p, Initial residual = 0.0774092, Final residual = 8.22634e-07, No Iterations 104
diagonal:  Solving for rho, Initial residual = 0, Final residual = 0, No Iterations 0
time step continuity errors : sum local = 9.82633e-09, global = -3.89981e-11, cumulative = 1.6173e-08
PIMPLE: Iteration 2
smoothSolver:  Solving for Ux, Initial residual = 0.00173245, Final residual = 9.71978e-07, No Iterations 2
smoothSolver:  Solving for Uy, Initial residual = 0.00154337, Final residual = 6.74592e-07, No Iterations 2
smoothSolver:  Solving for e, Initial residual = 0.00201444, Final residual = 1.29284e-06, No Iterations 2
DICPCG:  Solving for p, Initial residual = 0.00690739, Final residual = 9.94052e-07, No Iterations 92
diagonal:  Solving for rho, Initial residual = 0, Final residual = 0, No Iterations 0
time step continuity errors : sum local = 1.16145e-08, global = -1.19518e-10, cumulative = 1.60535e-08
PIMPLE: Iteration 3
smoothSolver:  Solving for Ux, Initial residual = 0.000175301, Final residual = 6.53438e-08, No Iterations 2
smoothSolver:  Solving for Uy, Initial residual = 0.000984951, Final residual = 5.66154e-07, No Iterations 2
smoothSolver:  Solving for e, Initial residual = 0.000169829, Final residual = 1.21172e-07, No Iterations 2
DICPCG:  Solving for p, Initial residual = 0.000734682, Final residual = 9.53556e-07, No Iterations 64
diagonal:  Solving for rho, Initial residual = 0, Final residual = 0, No Iterations 0
time step continuity errors : sum local = 1.11269e-08, global = 1.09881e-09, cumulative = 1.71523e-08
smoothSolver:  Solving for k, Initial residual = 0.0485341, Final residual = 1.67629e-07, No Iterations 3
bounding k, min: 0 max: 3.12904 average: 0.75679
ExecutionTime = 11.1 s  ClockTime = 12 s

Courant Number mean: 0.395455 max: 0.715494
Time = 0.17

PIMPLE: Iteration 1
diagonal:  Solving for rho, Initial residual = 0, Final residual = 0, No Iterations 0
smoothSolver:  Solving for Ux, Initial residual = 0.0848413, Final residual = 6.32537e-05, No Iterations 2
smoothSolver:  Solving for Uy, Initial residual = 0.0129063, Final residual = 4.12348e-06, No Iterations 2
smoothSolver:  Solving for e, Initial residual = 0.0127917, Final residual = 7.84729e-06, No Iterations 2
DICPCG:  Solving for p, Initial residual = 0.0525726, Final residual = 8.71758e-07, No Iterations 102
diagonal:  Solving for rho, Initial residual = 0, Final residual = 0, No Iterations 0
time step continuity errors : sum local = 1.01413e-08, global = -3.67186e-10, cumulative = 1.67851e-08
PIMPLE: Iteration 2
smoothSolver:  Solving for Ux, Initial residual = 0.00148021, Final residual = 6.7216e-07, No Iterations 2
smoothSolver:  Solving for Uy, Initial residual = 0.00134023, Final residual = 4.93142e-07, No Iterations 2
smoothSolver:  Solving for e, Initial residual = 0.00218873, Final residual = 1.44651e-06, No Iterations 2
DICPCG:  Solving for p, Initial residual = 0.0074851, Final residual = 9.12523e-07, No Iterations 89
diagonal:  Solving for rho, Initial residual = 0, Final residual = 0, No Iterations 0
time step continuity errors : sum local = 1.03648e-08, global = 3.96941e-11, cumulative = 1.68248e-08
PIMPLE: Iteration 3
smoothSolver:  Solving for Ux, Initial residual = 0.000156244, Final residual = 5.5735e-08, No Iterations 2
smoothSolver:  Solving for Uy, Initial residual = 0.000910563, Final residual = 3.77953e-07, No Iterations 2
smoothSolver:  Solving for e, Initial residual = 0.000166161, Final residual = 9.55698e-08, No Iterations 2
DICPCG:  Solving for p, Initial residual = 0.000716273, Final residual = 9.92795e-07, No Iterations 56
diagonal:  Solving for rho, Initial residual = 0, Final residual = 0, No Iterations 0
time step continuity errors : sum local = 1.12816e-08, global = 8.40052e-10, cumulative = 1.76648e-08
smoothSolver:  Solving for k, Initial residual = 0.0484819, Final residual = 1.33988e-07, No Iterations 3
bounding k, min: 0 max: 2.86896 average: 0.706188
ExecutionTime = 11.31 s  ClockTime = 12 s

Courant Number mean: 0.373245 max: 0.658422
Time = 0.175

PIMPLE: Iteration 1
diagonal:  Solving for rho, Initial residual = 0, Final residual = 0, No Iterations 0
[...]
smoothSolver:  Solving for Uy, Initial residual = 0.00900617, Final residual = 6.35698e-05, No Iterations 1
smoothSolver:  Solving for e, Initial residual = 0.00757081, Final residual = 6.85632e-05, No Iterations 1
DICPCG:  Solving for p, Initial residual = 0.691891, Final residual = 9.56686e-07, No Iterations 129
diagonal:  Solving for rho, Initial residual = 0, Final residual = 0, No Iterations 0
time step continuity errors : sum local = 1.45522e-09, global = 3.86674e-11, cumulative = 1.9943e-08
PIMPLE: Iteration 2
smoothSolver:  Solving for Ux, Initial residual = 0.00110508, Final residual = 7.20053e-06, No Iterations 1
smoothSolver:  Solving for Uy, Initial residual = 0.000657799, Final residual = 5.19124e-06, No Iterations 1
smoothSolver:  Solving for e, Initial residual = 0.000164038, Final residual = 2.2526e-08, No Iterations 2
DICPCG:  Solving for p, Initial residual = 0.006792, Final residual = 8.89892e-07, No Iterations 99
diagonal:  Solving for rho, Initial residual = 0, Final residual = 0, No Iterations 0
time step continuity errors : sum local = 1.79168e-09, global = -8.68089e-11, cumulative = 1.98562e-08
PIMPLE: Iteration 3
smoothSolver:  Solving for Ux, Initial residual = 2.08794e-05, Final residual = 1.57116e-07, No Iterations 1
smoothSolver:  Solving for Uy, Initial residual = 0.00136211, Final residual = 1.14224e-07, No Iterations 2
smoothSolver:  Solving for e, Initial residual = 6.17398e-05, Final residual = 6.39883e-07, No Iterations 1
DICPCG:  Solving for p, Initial residual = 0.00350897, Final residual = 9.59282e-07, No Iterations 86
diagonal:  Solving for rho, Initial residual = 0, Final residual = 0, No Iterations 0
time step continuity errors : sum local = 1.92862e-09, global = 9.27727e-11, cumulative = 1.99489e-08
smoothSolver:  Solving for k, Initial residual = 0.0295068, Final residual = 8.25762e-09, No Iterations 3
bounding k, min: 0 max: 1.924 average: 0.370166
ExecutionTime = 29.82 s  ClockTime = 31 s

Courant Number mean: 0.229731 max: 0.538577
Time = 0.465

PIMPLE: Iteration 1
diagonal:  Solving for rho, Initial residual = 0, Final residual = 0, No Iterations 0
smoothSolver:  Solving for Ux, Initial residual = 0.0141778, Final residual = 9.55196e-05, No Iterations 1
smoothSolver:  Solving for Uy, Initial residual = 0.00875726, Final residual = 5.99564e-05, No Iterations 1
smoothSolver:  Solving for e, Initial residual = 0.00737688, Final residual = 6.37787e-05, No Iterations 1
DICPCG:  Solving for p, Initial residual = 0.355884, Final residual = 9.95259e-07, No Iterations 122
diagonal:  Solving for rho, Initial residual = 0, Final residual = 0, No Iterations 0
time step continuity errors : sum local = 2.84642e-09, global = 3.20769e-11, cumulative = 1.9981e-08
PIMPLE: Iteration 2
smoothSolver:  Solving for Ux, Initial residual = 0.00107939, Final residual = 6.90229e-06, No Iterations 1
smoothSolver:  Solving for Uy, Initial residual = 0.000617949, Final residual = 4.9931e-06, No Iterations 1
smoothSolver:  Solving for e, Initial residual = 0.000178693, Final residual = 1.78325e-06, No Iterations 1
DICPCG:  Solving for p, Initial residual = 0.00457325, Final residual = 9.35948e-07, No Iterations 98
diagonal:  Solving for rho, Initial residual = 0, Final residual = 0, No Iterations 0
time step continuity errors : sum local = 3.42526e-09, global = -1.51913e-10, cumulative = 1.98291e-08
PIMPLE: Iteration 3
smoothSolver:  Solving for Ux, Initial residual = 3.11988e-05, Final residual = 2.15185e-07, No Iterations 1
smoothSolver:  Solving for Uy, Initial residual = 0.00135679, Final residual = 1.15822e-07, No Iterations 2
smoothSolver:  Solving for e, Initial residual = 6.06571e-05, Final residual = 6.1241e-07, No Iterations 1
DICPCG:  Solving for p, Initial residual = 0.00190097, Final residual = 9.35119e-07, No Iterations 80
diagonal:  Solving for rho, Initial residual = 0, Final residual = 0, No Iterations 0
time step continuity errors : sum local = 3.40923e-09, global = 9.83929e-11, cumulative = 1.99275e-08
smoothSolver:  Solving for k, Initial residual = 0.0291722, Final residual = 9.45968e-07, No Iterations 2
bounding k, min: 0 max: 1.92465 average: 0.35901
ExecutionTime = 30.04 s  ClockTime = 31 s

Courant Number mean: 0.232717 max: 0.538574
Time = 0.47

PIMPLE: Iteration 1
diagonal:  Solving for rho, Initial residual = 0, Final residual = 0, No Iterations 0
smoothSolver:  Solving for Ux, Initial residual = 0.0256536, Final residual = 0.00017195, No Iterations 1
smoothSolver:  Solving for Uy, Initial residual = 0.00866854, Final residual = 5.92103e-05, No Iterations 1
smoothSolver:  Solving for e, Initial residual = 0.0071708, Final residual = 5.92256e-05, No Iterations 1
DICPCG:  Solving for p, Initial residual = 0.224119, Final residual = 9.2733e-07, No Iterations 118
diagonal:  Solving for rho, Initial residual = 0, Final residual = 0, No Iterations 0
time step continuity errors : sum local = 4.04885e-09, global = 3.98951e-11, cumulative = 1.99674e-08
PIMPLE: Iteration 2
smoothSolver:  Solving for Ux, Initial residual = 0.0010092, Final residual = 6.41553e-06, No Iterations 1
smoothSolver:  Solving for Uy, Initial residual = 0.000652519, Final residual = 5.3314e-06, No Iterations 1
smoothSolver:  Solving for e, Initial residual = 0.000259549, Final residual = 2.49539e-06, No Iterations 1
DICPCG:  Solving for p, Initial residual = 0.00479362, Final residual = 9.36045e-07, No Iterations 97
diagonal:  Solving for rho, Initial residual = 0, Final residual = 0, No Iterations 0
time step continuity errors : sum local = 4.81805e-09, global = -7.0325e-11, cumulative = 1.98971e-08
PIMPLE: Iteration 3
smoothSolver:  Solving for Ux, Initial residual = 4.97041e-05, Final residual = 3.34109e-07, No Iterations 1
smoothSolver:  Solving for Uy, Initial residual = 0.0013655, Final residual = 1.21592e-07, No Iterations 2
smoothSolver:  Solving for e, Initial residual = 5.91272e-05, Final residual = 5.86028e-07, No Iterations 1
DICPCG:  Solving for p, Initial residual = 0.00132784, Final residual = 9.70829e-07, No Iterations 75
diagonal:  Solving for rho, Initial residual = 0, Final residual = 0, No Iterations 0
time step continuity errors : sum local = 4.97406e-09, global = 4.1202e-11, cumulative = 1.99383e-08
smoothSolver:  Solving for k, Initial residual = 0.0285438, Final residual = 8.96829e-07, No Iterations 2
bounding k, min: 0 max: 1.92549 average: 0.34857
ExecutionTime = 30.26 s  ClockTime = 32 s

Courant Number mean: 0.238562 max: 0.538607
Time = 0.475

PIMPLE: Iteration 1
diagonal:  Solving for rho, Initial residual = 0, Final residual = 0, No Iterations 0
smoothSolver:  Solving for Ux, Initial residual = 0.036395, Final residual = 0.000244781, No Iterations 1
smoothSolver:  Solving for Uy, Initial residual = 0.00885336, Final residual = 6.32444e-05, No Iterations 1
smoothSolver:  Solving for e, Initial residual = 0.00696231, Final residual = 5.50986e-05, No Iterations 1
DICPCG:  Solving for p, Initial residual = 0.163158, Final residual = 9.31453e-07, No Iterations 115
diagonal:  Solving for rho, Initial residual = 0, Final residual = 0, No Iterations 0
time step continuity errors : sum local = 5.3212e-09, global = 1.19722e-10, cumulative = 2.0058e-08
PIMPLE: Iteration 2
smoothSolver:  Solving for Ux, Initial residual = 0.000899116, Final residual = 5.74125e-06, No Iterations 1
smoothSolver:  Solving for Uy, Initial residual = 0.000637233, Final residual = 5.40538e-06, No Iterations 1
smoothSolver:  Solving for e, Initial residual = 0.00032397, Final residual = 3.09133e-06, No Iterations 1
DICPCG:  Solving for p, Initial residual = 0.00477079, Final residual = 9.36278e-07, No Iterations 96
diagonal:  Solving for rho, Initial residual = 0, Final residual = 0, No Iterations 0
time step continuity errors : sum local = 5.98107e-09, global = -4.79946e-11, cumulative = 2.001e-08
PIMPLE: Iteration 3
smoothSolver:  Solving for Ux, Initial residual = 6.20836e-05, Final residual = 4.16871e-07, No Iterations 1
smoothSolver:  Solving for Uy, Initial residual = 0.00131291, Final residual = 1.24118e-07, No Iterations 2
smoothSolver:  Solving for e, Initial residual = 5.55861e-05, Final residual = 5.51738e-07, No Iterations 1
DICPCG:  Solving for p, Initial residual = 0.0010104, Final residual = 9.43256e-07, No Iterations 66
diagonal:  Solving for rho, Initial residual = 0, Final residual = 0, No Iterations 0
time step continuity errors : sum local = 5.99681e-09, global = 3.12104e-11, cumulative = 2.00412e-08
smoothSolver:  Solving for k, Initial residual = 0.0275471, Final residual = 8.75179e-07, No Iterations 2
bounding k, min: 0 max: 1.92641 average: 0.339218
ExecutionTime = 30.47 s  ClockTime = 32 s

Courant Number mean: 0.24839 max: 0.538671
Time = 0.48

PIMPLE: Iteration 1
diagonal:  Solving for rho, Initial residual = 0, Final residual = 0, No Iterations 0
smoothSolver:  Solving for Ux, Initial residual = 0.0459272, Final residual = 0.000313764, No Iterations 1
smoothSolver:  Solving for Uy, Initial residual = 0.00905038, Final residual = 6.85131e-05, No Iterations 1
smoothSolver:  Solving for e, Initial residual = 0.00675505, Final residual = 5.17884e-05, No Iterations 1
DICPCG:  Solving for p, Initial residual = 0.128395, Final residual = 8.88468e-07, No Iterations 109
diagonal:  Solving for rho, Initial residual = 0, Final residual = 0, No Iterations 0
time step continuity errors : sum local = 6.0461e-09, global = -2.01555e-10, cumulative = 1.98396e-08
PIMPLE: Iteration 2
smoothSolver:  Solving for Ux, Initial residual = 0.000757759, Final residual = 4.87477e-06, No Iterations 1
smoothSolver:  Solving for Uy, Initial residual = 0.00066636, Final residual = 5.86382e-06, No Iterations 1
smoothSolver:  Solving for e, Initial residual = 0.000348667, Final residual = 3.35596e-06, No Iterations 1
DICPCG:  Solving for p, Initial residual = 0.00448929, Final residual = 8.08257e-07, No Iterations 96
diagonal:  Solving for rho, Initial residual = 0, Final residual = 0, No Iterations 0
time step continuity errors : sum local = 5.90808e-09, global = -3.30017e-11, cumulative = 1.98066e-08
PIMPLE: Iteration 3
smoothSolver:  Solving for Ux, Initial residual = 6.56045e-05, Final residual = 4.45977e-07, No Iterations 1
smoothSolver:  Solving for Uy, Initial residual = 0.00130705, Final residual = 1.35183e-07, No Iterations 2
smoothSolver:  Solving for e, Initial residual = 5.22695e-05, Final residual = 5.3118e-07, No Iterations 1
DICPCG:  Solving for p, Initial residual = 0.000853646, Final residual = 9.93828e-07, No Iterations 68
diagonal:  Solving for rho, Initial residual = 0, Final residual = 0, No Iterations 0
time step continuity errors : sum local = 7.2306e-09, global = 9.15645e-10, cumulative = 2.07223e-08
smoothSolver:  Solving for k, Initial residual = 0.0264484, Final residual = 8.95717e-07, No Iterations 2
bounding k, min: 0 max: 1.92732 average: 0.331357
ExecutionTime = 31.08 s  ClockTime = 32 s

Courant Number mean: 0.261735 max: 0.538763
Time = 0.485

PIMPLE: Iteration 1
diagonal:  Solving for rho, Initial residual = 0, Final residual = 0, No Iterations 0
smoothSolver:  Solving for Ux, Initial residual = 0.0538533, Final residual = 0.00037728, No Iterations 1
smoothSolver:  Solving for Uy, Initial residual = 0.00922021, Final residual = 7.39499e-05, No Iterations 1
smoothSolver:  Solving for e, Initial residual = 0.00652664, Final residual = 4.90966e-05, No Iterations 1
DICPCG:  Solving for p, Initial residual = 0.10515, Final residual = 9.20914e-07, No Iterations 111
diagonal:  Solving for rho, Initial residual = 0, Final residual = 0, No Iterations 0
time step continuity errors : sum local = 6.9827e-09, global = 7.1766e-12, cumulative = 2.07295e-08
PIMPLE: Iteration 2
smoothSolver:  Solving for Ux, Initial residual = 0.000591949, Final residual = 3.82336e-06, No Iterations 1
smoothSolver:  Solving for Uy, Initial residual = 0.000655598, Final residual = 5.9197e-06, No Iterations 1
smoothSolver:  Solving for e, Initial residual = 0.000332093, Final residual = 3.26635e-06, No Iterations 1
DICPCG:  Solving for p, Initial residual = 0.00392539, Final residual = 9.66245e-07, No Iterations 91
diagonal:  Solving for rho, Initial residual = 0, Final residual = 0, No Iterations 0
time step continuity errors : sum local = 7.65841e-09, global = -5.65215e-11, cumulative = 2.06729e-08
PIMPLE: Iteration 3
smoothSolver:  Solving for Ux, Initial residual = 5.975e-05, Final residual = 4.16217e-07, No Iterations 1
smoothSolver:  Solving for Uy, Initial residual = 0.00115518, Final residual = 1.33837e-07, No Iterations 2
smoothSolver:  Solving for e, Initial residual = 4.7222e-05, Final residual = 5.14378e-07, No Iterations 1
DICPCG:  Solving for p, Initial residual = 0.000720209, Final residual = 9.07247e-07, No Iterations 68
diagonal:  Solving for rho, Initial residual = 0, Final residual = 0, No Iterations 0
time step continuity errors : sum local = 7.16063e-09, global = 8.38181e-10, cumulative = 2.15111e-08
smoothSolver:  Solving for k, Initial residual = 0.0261819, Final residual = 9.84786e-07, No Iterations 2
bounding k, min: 0 max: 1.92814 average: 0.325399
ExecutionTime = 31.29 s  ClockTime = 33 s

Courant Number mean: 0.276871 max: 0.538875
Time = 0.49

PIMPLE: Iteration 1
diagonal:  Solving for rho, Initial residual = 0, Final residual = 0, No Iterations 0
smoothSolver:  Solving for Ux, Initial residual = 0.0598762, Final residual = 0.000432686, No Iterations 1
smoothSolver:  Solving for Uy, Initial residual = 0.0091978, Final residual = 7.7692e-05, No Iterations 1
smoothSolver:  Solving for e, Initial residual = 0.00627134, Final residual = 4.66421e-05, No Iterations 1
DICPCG:  Solving for p, Initial residual = 0.0864132, Final residual = 9.93906e-07, No Iterations 106
diagonal:  Solving for rho, Initial residual = 0, Final residual = 0, No Iterations 0
time step continuity errors : sum local = 8.02652e-09, global = 6.29758e-11, cumulative = 2.15741e-08
PIMPLE: Iteration 2
smoothSolver:  Solving for Ux, Initial residual = 0.000554644, Final residual = 3.94703e-06, No Iterations 1
smoothSolver:  Solving for Uy, Initial residual = 0.000730329, Final residual = 6.43089e-06, No Iterations 1
smoothSolver:  Solving for e, Initial residual = 0.000321424, Final residual = 3.10217e-06, No Iterations 1
DICPCG:  Solving for p, Initial residual = 0.00363779, Final residual = 9.1856e-07, No Iterations 90
diagonal:  Solving for rho, Initial residual = 0, Final residual = 0, No Iterations 0
time step continuity errors : sum local = 7.58439e-09, global = -8.69312e-11, cumulative = 2.14872e-08
PIMPLE: Iteration 3
smoothSolver:  Solving for Ux, Initial residual = 4.71506e-05, Final residual = 3.45583e-07, No Iterations 1
smoothSolver:  Solving for Uy, Initial residual = 0.00113139, Final residual = 1.43621e-07, No Iterations 2
smoothSolver:  Solving for e, Initial residual = 5.20297e-05, Final residual = 5.36736e-07, No Iterations 1
DICPCG:  Solving for p, Initial residual = 0.000726642, Final residual = 9.19021e-07, No Iterations 66
diagonal:  Solving for rho, Initial residual = 0, Final residual = 0, No Iterations 0
time step continuity errors : sum local = 7.56147e-09, global = 9.20069e-10, cumulative = 2.24072e-08
smoothSolver:  Solving for k, Initial residual = 0.0291574, Final residual = 1.63477e-08, No Iterations 3
bounding k, min: 0 max: 1.92882 average: 0.321801
ExecutionTime = 31.5 s  ClockTime = 33 s

Courant Number mean: 0.29305 max: 0.538999
Time = 0.495

PIMPLE: Iteration 1
diagonal:  Solving for rho, Initial residual = 0, Final residual = 0, No Iterations 0
smoothSolver:  Solving for Ux, Initial residual = 0.0638155, Final residual = 0.000479026, No Iterations 1
smoothSolver:  Solving for Uy, Initial residual = 0.00921139, Final residual = 8.11963e-05, No Iterations 1
smoothSolver:  Solving for e, Initial residual = 0.00596894, Final residual = 4.43486e-05, No Iterations 1
DICPCG:  Solving for p, Initial residual = 0.0688173, Final residual = 9.2198e-07, No Iterations 105
diagonal:  Solving for rho, Initial residual = 0, Final residual = 0, No Iterations 0
time step continuity errors : sum local = 7.66579e-09, global = 2.88074e-11, cumulative = 2.2436e-08
PIMPLE: Iteration 2
smoothSolver:  Solving for Ux, Initial residual = 0.000645364, Final residual = 4.76218e-06, No Iterations 1
smoothSolver:  Solving for Uy, Initial residual = 0.000772484, Final residual = 6.86363e-06, No Iterations 1
smoothSolver:  Solving for e, Initial residual = 0.000356094, Final residual = 3.30485e-06, No Iterations 1
DICPCG:  Solving for p, Initial residual = 0.00407103, Final residual = 9.00632e-07, No Iterations 88
diagonal:  Solving for rho, Initial residual = 0, Final residual = 0, No Iterations 0
time step continuity errors : sum local = 7.53144e-09, global = -2.37324e-10, cumulative = 2.21987e-08
PIMPLE: Iteration 3
smoothSolver:  Solving for Ux, Initial residual = 4.32625e-05, Final residual = 3.34609e-07, No Iterations 1
smoothSolver:  Solving for Uy, Initial residual = 0.00115588, Final residual = 1.60918e-07, No Iterations 2
smoothSolver:  Solving for e, Initial residual = 6.27857e-05, Final residual = 5.91021e-07, No Iterations 1
DICPCG:  Solving for p, Initial residual = 0.000818423, Final residual = 9.91856e-07, No Iterations 64
diagonal:  Solving for rho, Initial residual = 0, Final residual = 0, No Iterations 0
time step continuity errors : sum local = 8.27171e-09, global = 9.93928e-10, cumulative = 2.31926e-08
smoothSolver:  Solving for k, Initial residual = 0.0348449, Final residual = 2.1441e-08, No Iterations 3
bounding k, min: 0 max: 1.92932 average: 0.321129
ExecutionTime = 31.71 s  ClockTime = 33 s

Courant Number mean: 0.309749 max: 0.553595
Time = 0.5

PIMPLE: Iteration 1
diagonal:  Solving for rho, Initial residual = 0, Final residual = 0, No Iterations 0
smoothSolver:  Solving for Ux, Initial residual = 0.0656066, Final residual = 0.000516002, No Iterations 1
smoothSolver:  Solving for Uy, Initial residual = 0.0100398, Final residual = 8.8551e-05, No Iterations 1
smoothSolver:  Solving for e, Initial residual = 0.00560852, Final residual = 4.23413e-05, No Iterations 1
DICPCG:  Solving for p, Initial residual = 0.050395, Final residual = 9.33359e-07, No Iterations 99
diagonal:  Solving for rho, Initial residual = 0, Final residual = 0, No Iterations 0
time step continuity errors : sum local = 7.80027e-09, global = -2.52525e-11, cumulative = 2.31674e-08
PIMPLE: Iteration 2
smoothSolver:  Solving for Ux, Initial residual = 0.000664172, Final residual = 5.10037e-06, No Iterations 1
smoothSolver:  Solving for Uy, Initial residual = 0.000805404, Final residual = 7.34389e-06, No Iterations 1
smoothSolver:  Solving for e, Initial residual = 0.000426378, Final residual = 3.82402e-06, No Iterations 1
DICPCG:  Solving for p, Initial residual = 0.00490108, Final residual = 9.56959e-07, No Iterations 88
diagonal:  Solving for rho, Initial residual = 0, Final residual = 0, No Iterations 0
time step continuity errors : sum local = 7.9565e-09, global = 1.51553e-10, cumulative = 2.33189e-08
PIMPLE: Iteration 3
smoothSolver:  Solving for Ux, Initial residual = 3.89533e-05, Final residual = 3.18597e-07, No Iterations 1
smoothSolver:  Solving for Uy, Initial residual = 0.00124903, Final residual = 1.98515e-07, No Iterations 2
smoothSolver:  Solving for e, Initial residual = 7.46376e-05, Final residual = 6.62417e-07, No Iterations 1
DICPCG:  Solving for p, Initial residual = 0.00093548, Final residual = 9.2917e-07, No Iterations 66
diagonal:  Solving for rho, Initial residual = 0, Final residual = 0, No Iterations 0
time step continuity errors : sum local = 7.71105e-09, global = 7.31013e-10, cumulative = 2.405e-08
smoothSolver:  Solving for k, Initial residual = 0.0432021, Final residual = 2.83749e-08, No Iterations 3
bounding k, min: 0 max: 1.92962 average: 0.324075
ExecutionTime = 32.31 s  ClockTime = 34 s

End

