/*---------------------------------------------------------------------------*\
  =========                 |
  \\      /  F ield         | OpenFOAM: The Open Source CFD Toolbox
   \\    /   O peration     | Website:  https://openfoam.org
    \\  /    A nd           | Version:  7
     \\/     M anipulation  |
\*---------------------------------------------------------------------------*/
Build  : 7-49b2b3b8b082
Exec   : blockMesh
Date   : Apr 13 2023
Time   : 20:31:58
Host   : "c419-064.stampede2.tacc.utexas.edu"
PID    : 45273
I/O    : uncollated
Case   : /home1/07645/eesha_n/SeniorDesign/CooliestModel/src/CFD/ConvergenceStudy/pipe_validation_3
nProcs : 1
sigFpe : Enabling floating point exception trapping (FOAM_SIGFPE).
fileModificationChecking : Monitoring run-time modified files using timeStampMaster (fileModificationSkew 10)
allowSystemOperations : Allowing user-supplied system call operations

// * * * * * * * * * * * * * * * * * * * * * * * * * * * * * * * * * * * * * //
Create time

Creating block mesh from
    "/home1/07645/eesha_n/SeniorDesign/CooliestModel/src/CFD/ConvergenceStudy/pipe_validation_3/system/blockMeshDict"
Creating block edges
No non-planar block faces defined
Creating topology blocks
Creating topology patches

Creating block mesh topology

Check topology

	Basic statistics
		Number of internal faces : 1
		Number of boundary faces : 10
		Number of defined boundary faces : 10
		Number of undefined boundary faces : 0
	Checking patch -> block consistency

Creating block offsets
Creating merge list .

Creating polyMesh from blockMesh
Creating points with scale 1
    Block 0 cell size :
        i : 0.06 .. 0.06
        j : 0.0166667 .. 0.0166667
        k : 0.0375 .. 0.0375
    Block 1 cell size :
        i : 0.2 .. 0.2
        j : 0.0166667 .. 0.0166667
        k : 0.0375 .. 0.0375
Creating cells
Creating patches

There are no merge patch pairs edges

Writing polyMesh
----------------
Mesh Information
----------------
  boundingBox: (0 0 -0.15) (19.2 0.2 0)
  nPoints: 7215
  nCells: 5280
  nFaces: 17648
  nInternalFaces: 14032
----------------
Patches
----------------
  patch 0 (start: 14032 size: 440) name: upperWall
  patch 1 (start: 14472 size: 80) name: lowerWall
  patch 2 (start: 14552 size: 360) name: heatedWall
  patch 3 (start: 14912 size: 48) name: inlet
  patch 4 (start: 14960 size: 48) name: outlet
  patch 5 (start: 15008 size: 2640) name: frontAndBack

End

