/*---------------------------------------------------------------------------*\
  =========                 |
  \\      /  F ield         | OpenFOAM: The Open Source CFD Toolbox
   \\    /   O peration     | Website:  https://openfoam.org
    \\  /    A nd           | Version:  7
     \\/     M anipulation  |
\*---------------------------------------------------------------------------*/
Build  : 7-49b2b3b8b082
Exec   : blockMesh
Date   : Apr 14 2023
Time   : 09:50:07
Host   : "c401-071.stampede2.tacc.utexas.edu"
PID    : 83362
I/O    : uncollated
Case   : /home1/07645/eesha_n/SeniorDesign/CooliestModel/src/CFD/ConvergenceStudy/pipe_validation_5
nProcs : 1
sigFpe : Enabling floating point exception trapping (FOAM_SIGFPE).
fileModificationChecking : Monitoring run-time modified files using timeStampMaster (fileModificationSkew 10)
allowSystemOperations : Allowing user-supplied system call operations

// * * * * * * * * * * * * * * * * * * * * * * * * * * * * * * * * * * * * * //
Create time

Creating block mesh from
    "/home1/07645/eesha_n/SeniorDesign/CooliestModel/src/CFD/ConvergenceStudy/pipe_validation_5/system/blockMeshDict"
Creating block edges
No non-planar block faces defined
Creating topology blocks
Creating topology patches

Creating block mesh topology

Check topology

	Basic statistics
		Number of internal faces : 1
		Number of boundary faces : 10
		Number of defined boundary faces : 10
		Number of undefined boundary faces : 0
	Checking patch -> block consistency

Creating block offsets
Creating merge list .

Creating polyMesh from blockMesh
Creating points with scale 1
    Block 0 cell size :
        i : 0.02 .. 0.02
        j : 0.0166667 .. 0.0166667
        k : 0.15
    Block 1 cell size :
        i : 0.0666667 .. 0.0666667
        j : 0.0166667 .. 0.0166667
        k : 0.15
Creating cells
Creating patches

There are no merge patch pairs edges

Writing polyMesh
----------------
Mesh Information
----------------
  boundingBox: (0 0 -0.15) (19.2 0.2 0)
  nPoints: 8606
  nCells: 3960
  nFaces: 16182
  nInternalFaces: 7578
----------------
Patches
----------------
  patch 0 (start: 7578 size: 330) name: upperWall
  patch 1 (start: 7908 size: 60) name: lowerWall
  patch 2 (start: 7968 size: 270) name: heatedWall
  patch 3 (start: 8238 size: 12) name: inlet
  patch 4 (start: 8250 size: 12) name: outlet
  patch 5 (start: 8262 size: 7920) name: frontAndBack

End

