/*---------------------------------------------------------------------------*\
  =========                 |
  \\      /  F ield         | OpenFOAM: The Open Source CFD Toolbox
   \\    /   O peration     | Website:  https://openfoam.org
    \\  /    A nd           | Version:  7
     \\/     M anipulation  |
\*---------------------------------------------------------------------------*/
Build  : 7-49b2b3b8b082
Exec   : buoyantPimpleFoam
Date   : Mar 24 2023
Time   : 09:35:06
Host   : "c403-014.stampede2.tacc.utexas.edu"
PID    : 82002
I/O    : uncollated
Case   : /home1/08376/lew2547/seniordesign/CooliestModel/src/CFD/flow-over-heated-plate/fluid-openfoam
nProcs : 1
sigFpe : Enabling floating point exception trapping (FOAM_SIGFPE).
fileModificationChecking : Monitoring run-time modified files using timeStampMaster (fileModificationSkew 10)
allowSystemOperations : Allowing user-supplied system call operations

// * * * * * * * * * * * * * * * * * * * * * * * * * * * * * * * * * * * * * //
Create time

Create mesh for time = 0


PIMPLE: No convergence criteria found


PIMPLE: Operating solver in transient mode with 1 outer corrector
PIMPLE: Operating solver in PISO mode


Reading thermophysical properties

Selecting thermodynamics package 
{
    type            heRhoThermo;
    mixture         pureMixture;
    transport       const;
    thermo          hConst;
    equationOfState perfectGas;
    specie          specie;
    energy          sensibleEnthalpy;
}

Reading field U

Reading/calculating face flux field phi

Creating turbulence model

Selecting turbulence model type laminar
Selecting laminar stress model Stokes

Reading g

Reading hRef
Calculating field g.h

Reading field p_rgh

Creating field dpdt

Creating field kinetic energy K

No MRF models present

Radiation model not active: radiationProperties not found
Selecting radiationModel none
No finite volume options present
Courant Number mean: 0.0837143 max: 0.403668

Starting time loop

--> FOAM Warning : 
    From function void *Foam::dlOpen(const Foam::fileName &, bool)
    in file POSIX.C at line 1251
    dlopen error : libpreciceAdapterFunctionObject.so: cannot open shared object file: No such file or directory
--> FOAM Warning : 
    From function bool Foam::dlLibraryTable::open(const Foam::fileName &, bool)
    in file db/dynamicLibrary/dlLibraryTable/dlLibraryTable.C at line 105
    could not load "libpreciceAdapterFunctionObject.so"
--> FOAM Warning : 
    From function bool Foam::dlLibraryTable::open(const Foam::dictionary &, const Foam::word &, const TablePtr &) [with TablePtr = Foam::HashTable<Foam::autoPtr<Foam::functionObject> (*)(const Foam::word &, const Foam::Time &, const Foam::dictionary &), Foam::word, Foam::string::hash> *]
    in file lnInclude/dlLibraryTableTemplates.C at line 62
    Could not open library "libpreciceAdapterFunctionObject.so"

--> FOAM Warning : 
    From function bool Foam::functionObjectList::read()
    in file db/functionObjects/functionObjectList/functionObjectList.C at line 746
    Caught FatalError 
--> FOAM FATAL ERROR: 
Unknown function type preciceAdapterFunctionObject

Valid functions are : 

6
(
patchProbes
probes
psiReactionThermoMoleFractions
rhoReactionThermoMoleFractions
sets
surfaces
)



    From function static Foam::autoPtr<Foam::functionObject> Foam::functionObject::New(const Foam::word &, const Foam::Time &, const Foam::dictionary &)
    in file db/functionObjects/functionObject/functionObject.C at line 100.

Courant Number mean: 0.0837143 max: 0.403668
Time = 0.01

diagonal:  Solving for rho, Initial residual = 0, Final residual = 0, No Iterations 0
DILUPBiCGStab:  Solving for Ux, Initial residual = 1, Final residual = 1.17224e-07, No Iterations 2
DILUPBiCGStab:  Solving for Uy, Initial residual = 1, Final residual = 9.27306e-07, No Iterations 2
DILUPBiCGStab:  Solving for h, Initial residual = 1, Final residual = 8.83685e-07, No Iterations 15
DICPCG:  Solving for p_rgh, Initial residual = 0.826826, Final residual = 0.00772526, No Iterations 87
diagonal:  Solving for rho, Initial residual = 0, Final residual = 0, No Iterations 0
time step continuity errors : sum local = 6.8964e-05, global = -1.36158e-07, cumulative = -1.36158e-07
DICPCG:  Solving for p_rgh, Initial residual = 0.311164, Final residual = 9.3e-09, No Iterations 215
diagonal:  Solving for rho, Initial residual = 0, Final residual = 0, No Iterations 0
time step continuity errors : sum local = 7.67259e-10, global = -6.23118e-10, cumulative = -1.36782e-07
ExecutionTime = 0.93 s  ClockTime = 1 s

Courant Number mean: 0.0853553 max: 0.421146
Time = 0.02

diagonal:  Solving for rho, Initial residual = 0, Final residual = 0, No Iterations 0
DILUPBiCGStab:  Solving for Ux, Initial residual = 0.357997, Final residual = 1.58006e-07, No Iterations 2
DILUPBiCGStab:  Solving for Uy, Initial residual = 0.200551, Final residual = 9.27997e-07, No Iterations 2
DILUPBiCGStab:  Solving for h, Initial residual = 0.997449, Final residual = 7.61547e-07, No Iterations 15
DICPCG:  Solving for p_rgh, Initial residual = 0.0419034, Final residual = 0.00034962, No Iterations 145
diagonal:  Solving for rho, Initial residual = 0, Final residual = 0, No Iterations 0
time step continuity errors : sum local = 8.89493e-07, global = 1.00106e-08, cumulative = -1.26771e-07
DICPCG:  Solving for p_rgh, Initial residual = 0.0291177, Final residual = 8.42153e-09, No Iterations 204
diagonal:  Solving for rho, Initial residual = 0, Final residual = 0, No Iterations 0
time step continuity errors : sum local = 3.43202e-10, global = -2.1437e-10, cumulative = -1.26985e-07
ExecutionTime = 1.27 s  ClockTime = 1 s

Courant Number mean: 0.0850396 max: 0.421406
Time = 0.03

diagonal:  Solving for rho, Initial residual = 0, Final residual = 0, No Iterations 0
DILUPBiCGStab:  Solving for Ux, Initial residual = 0.174444, Final residual = 1.6565e-07, No Iterations 2
DILUPBiCGStab:  Solving for Uy, Initial residual = 0.102172, Final residual = 3.79702e-07, No Iterations 2
DILUPBiCGStab:  Solving for h, Initial residual = 0.904038, Final residual = 5.89366e-07, No Iterations 16
DICPCG:  Solving for p_rgh, Initial residual = 0.0303461, Final residual = 0.000283931, No Iterations 148
diagonal:  Solving for rho, Initial residual = 0, Final residual = 0, No Iterations 0
time step continuity errors : sum local = 1.94282e-07, global = 3.92045e-10, cumulative = -1.26593e-07
DICPCG:  Solving for p_rgh, Initial residual = 0.00212656, Final residual = 9.86918e-09, No Iterations 196
diagonal:  Solving for rho, Initial residual = 0, Final residual = 0, No Iterations 0
time step continuity errors : sum local = 2.13335e-10, global = -3.58654e-11, cumulative = -1.26629e-07
ExecutionTime = 1.61 s  ClockTime = 2 s

Courant Number mean: 0.0842129 max: 0.420153
Time = 0.04

diagonal:  Solving for rho, Initial residual = 0, Final residual = 0, No Iterations 0
DILUPBiCGStab:  Solving for Ux, Initial residual = 0.39441, Final residual = 3.1381e-07, No Iterations 2
DILUPBiCGStab:  Solving for Uy, Initial residual = 0.00975589, Final residual = 1.40522e-07, No Iterations 2
DILUPBiCGStab:  Solving for h, Initial residual = 0.119528, Final residual = 9.24035e-07, No Iterations 13
DICPCG:  Solving for p_rgh, Initial residual = 0.00677933, Final residual = 5.74505e-05, No Iterations 145
diagonal:  Solving for rho, Initial residual = 0, Final residual = 0, No Iterations 0
time step continuity errors : sum local = 7.33213e-08, global = 7.83565e-10, cumulative = -1.25846e-07
DICPCG:  Solving for p_rgh, Initial residual = 0.00216608, Final residual = 9.51784e-09, No Iterations 198
diagonal:  Solving for rho, Initial residual = 0, Final residual = 0, No Iterations 0
time step continuity errors : sum local = 2.22759e-10, global = 5.29185e-11, cumulative = -1.25793e-07
ExecutionTime = 1.94 s  ClockTime = 2 s

Courant Number mean: 0.0838379 max: 0.419949
Time = 0.05

diagonal:  Solving for rho, Initial residual = 0, Final residual = 0, No Iterations 0
DILUPBiCGStab:  Solving for Ux, Initial residual = 0.138133, Final residual = 1.70855e-07, No Iterations 2
DILUPBiCGStab:  Solving for Uy, Initial residual = 0.00733188, Final residual = 1.0344e-07, No Iterations 2
DILUPBiCGStab:  Solving for h, Initial residual = 0.136276, Final residual = 8.64254e-07, No Iterations 13
DICPCG:  Solving for p_rgh, Initial residual = 0.0116306, Final residual = 9.55692e-05, No Iterations 147
diagonal:  Solving for rho, Initial residual = 0, Final residual = 0, No Iterations 0
time step continuity errors : sum local = 4.80726e-08, global = 2.73846e-10, cumulative = -1.25519e-07
DICPCG:  Solving for p_rgh, Initial residual = 0.00399013, Final residual = 8.33071e-09, No Iterations 202
diagonal:  Solving for rho, Initial residual = 0, Final residual = 0, No Iterations 0
time step continuity errors : sum local = 2.24884e-10, global = 4.35162e-11, cumulative = -1.25475e-07
ExecutionTime = 2.28 s  ClockTime = 2 s

Courant Number mean: 0.0838999 max: 0.420872
Time = 0.06

diagonal:  Solving for rho, Initial residual = 0, Final residual = 0, No Iterations 0
DILUPBiCGStab:  Solving for Ux, Initial residual = 0.039625, Final residual = 8.04291e-08, No Iterations 2
DILUPBiCGStab:  Solving for Uy, Initial residual = 0.00677917, Final residual = 8.66754e-08, No Iterations 2
DILUPBiCGStab:  Solving for h, Initial residual = 0.127311, Final residual = 8.66943e-07, No Iterations 13
DICPCG:  Solving for p_rgh, Initial residual = 0.00840588, Final residual = 6.81325e-05, No Iterations 147
diagonal:  Solving for rho, Initial residual = 0, Final residual = 0, No Iterations 0
time step continuity errors : sum local = 1.13309e-08, global = 6.88684e-11, cumulative = -1.25406e-07
DICPCG:  Solving for p_rgh, Initial residual = 0.000593963, Final residual = 8.66303e-09, No Iterations 192
diagonal:  Solving for rho, Initial residual = 0, Final residual = 0, No Iterations 0
time step continuity errors : sum local = 2.0232e-10, global = 8.62531e-12, cumulative = -1.25398e-07
ExecutionTime = 2.61 s  ClockTime = 3 s

Courant Number mean: 0.0840584 max: 0.422009
Time = 0.07

diagonal:  Solving for rho, Initial residual = 0, Final residual = 0, No Iterations 0
DILUPBiCGStab:  Solving for Ux, Initial residual = 0.0542244, Final residual = 7.17597e-08, No Iterations 2
DILUPBiCGStab:  Solving for Uy, Initial residual = 0.00641299, Final residual = 7.50385e-08, No Iterations 2
DILUPBiCGStab:  Solving for h, Initial residual = 0.0324934, Final residual = 6.53409e-07, No Iterations 12
DICPCG:  Solving for p_rgh, Initial residual = 0.00403706, Final residual = 4.02628e-05, No Iterations 147
diagonal:  Solving for rho, Initial residual = 0, Final residual = 0, No Iterations 0
time step continuity errors : sum local = 1.20873e-08, global = -1.06577e-10, cumulative = -1.25504e-07
DICPCG:  Solving for p_rgh, Initial residual = 0.00124463, Final residual = 8.16376e-09, No Iterations 192
diagonal:  Solving for rho, Initial residual = 0, Final residual = 0, No Iterations 0
time step continuity errors : sum local = 1.96406e-10, global = -9.47684e-12, cumulative = -1.25514e-07
ExecutionTime = 2.94 s  ClockTime = 3 s

Courant Number mean: 0.0841316 max: 0.422872
Time = 0.08

diagonal:  Solving for rho, Initial residual = 0, Final residual = 0, No Iterations 0
DILUPBiCGStab:  Solving for Ux, Initial residual = 0.0301097, Final residual = 5.79108e-08, No Iterations 2
DILUPBiCGStab:  Solving for Uy, Initial residual = 0.00621749, Final residual = 6.7151e-08, No Iterations 2
DILUPBiCGStab:  Solving for h, Initial residual = 0.0347294, Final residual = 9.50761e-07, No Iterations 11
DICPCG:  Solving for p_rgh, Initial residual = 0.00676137, Final residual = 5.81812e-05, No Iterations 148
diagonal:  Solving for rho, Initial residual = 0, Final residual = 0, No Iterations 0
time step continuity errors : sum local = 9.3797e-09, global = -8.60613e-11, cumulative = -1.256e-07
DICPCG:  Solving for p_rgh, Initial residual = 0.00727986, Final residual = 8.56669e-09, No Iterations 202
diagonal:  Solving for rho, Initial residual = 0, Final residual = 0, No Iterations 0
time step continuity errors : sum local = 2.0834e-10, global = -8.49213e-12, cumulative = -1.25608e-07
ExecutionTime = 3.28 s  ClockTime = 3 s

Courant Number mean: 0.0841234 max: 0.423482
Time = 0.09

diagonal:  Solving for rho, Initial residual = 0, Final residual = 0, No Iterations 0
DILUPBiCGStab:  Solving for Ux, Initial residual = 0.0106425, Final residual = 4.11086e-08, No Iterations 2
DILUPBiCGStab:  Solving for Uy, Initial residual = 0.00612036, Final residual = 6.14222e-08, No Iterations 2
DILUPBiCGStab:  Solving for h, Initial residual = 0.0316414, Final residual = 8.77957e-07, No Iterations 11
DICPCG:  Solving for p_rgh, Initial residual = 0.0106779, Final residual = 9.44894e-05, No Iterations 148
diagonal:  Solving for rho, Initial residual = 0, Final residual = 0, No Iterations 0
time step continuity errors : sum local = 2.89434e-09, global = -3.16701e-11, cumulative = -1.2564e-07
DICPCG:  Solving for p_rgh, Initial residual = 0.00501445, Final residual = 8.72146e-09, No Iterations 203
diagonal:  Solving for rho, Initial residual = 0, Final residual = 0, No Iterations 0
time step continuity errors : sum local = 2.00964e-10, global = -2.25828e-12, cumulative = -1.25642e-07
ExecutionTime = 3.61 s  ClockTime = 4 s

Courant Number mean: 0.0840944 max: 0.424006
Time = 0.1

diagonal:  Solving for rho, Initial residual = 0, Final residual = 0, No Iterations 0
DILUPBiCGStab:  Solving for Ux, Initial residual = 0.00783323, Final residual = 3.20798e-08, No Iterations 2
DILUPBiCGStab:  Solving for Uy, Initial residual = 0.00607659, Final residual = 5.71415e-08, No Iterations 2
DILUPBiCGStab:  Solving for h, Initial residual = 0.00853792, Final residual = 5.61255e-07, No Iterations 9
DICPCG:  Solving for p_rgh, Initial residual = 0.0285413, Final residual = 0.000265246, No Iterations 148
diagonal:  Solving for rho, Initial residual = 0, Final residual = 0, No Iterations 0
time step continuity errors : sum local = 2.15584e-09, global = 1.15763e-11, cumulative = -1.25631e-07
DICPCG:  Solving for p_rgh, Initial residual = 0.00218653, Final residual = 9.54637e-09, No Iterations 200
diagonal:  Solving for rho, Initial residual = 0, Final residual = 0, No Iterations 0
time step continuity errors : sum local = 2.00011e-10, global = 9.8513e-13, cumulative = -1.2563e-07
ExecutionTime = 3.94 s  ClockTime = 4 s

Courant Number mean: 0.0840797 max: 0.424542
Time = 0.11

diagonal:  Solving for rho, Initial residual = 0, Final residual = 0, No Iterations 0
DILUPBiCGStab:  Solving for Ux, Initial residual = 0.00720679, Final residual = 2.97241e-08, No Iterations 2
DILUPBiCGStab:  Solving for Uy, Initial residual = 0.00606901, Final residual = 5.38102e-08, No Iterations 2
DILUPBiCGStab:  Solving for h, Initial residual = 0.00570562, Final residual = 7.05397e-07, No Iterations 10
DICPCG:  Solving for p_rgh, Initial residual = 0.0146556, Final residual = 0.00013204, No Iterations 148
diagonal:  Solving for rho, Initial residual = 0, Final residual = 0, No Iterations 0
time step continuity errors : sum local = 2.10433e-09, global = 1.30116e-11, cumulative = -1.25617e-07
DICPCG:  Solving for p_rgh, Initial residual = 0.000897328, Final residual = 9.13821e-09, No Iterations 195
diagonal:  Solving for rho, Initial residual = 0, Final residual = 0, No Iterations 0
time step continuity errors : sum local = 2.0268e-10, global = 2.06715e-12, cumulative = -1.25615e-07
ExecutionTime = 4.27 s  ClockTime = 4 s

Courant Number mean: 0.0840806 max: 0.425095
Time = 0.12

diagonal:  Solving for rho, Initial residual = 0, Final residual = 0, No Iterations 0
DILUPBiCGStab:  Solving for Ux, Initial residual = 0.00912196, Final residual = 3.28077e-08, No Iterations 2
DILUPBiCGStab:  Solving for Uy, Initial residual = 0.00607863, Final residual = 5.10758e-08, No Iterations 2
DILUPBiCGStab:  Solving for h, Initial residual = 0.00609224, Final residual = 7.11248e-07, No Iterations 10
DICPCG:  Solving for p_rgh, Initial residual = 0.00254009, Final residual = 2.38022e-05, No Iterations 149
diagonal:  Solving for rho, Initial residual = 0, Final residual = 0, No Iterations 0
time step continuity errors : sum local = 9.35368e-10, global = -7.44271e-12, cumulative = -1.25622e-07
DICPCG:  Solving for p_rgh, Initial residual = 0.000386109, Final residual = 8.77891e-09, No Iterations 185
diagonal:  Solving for rho, Initial residual = 0, Final residual = 0, No Iterations 0
time step continuity errors : sum local = 1.97353e-10, global = -2.77861e-13, cumulative = -1.25622e-07
ExecutionTime = 4.6 s  ClockTime = 5 s

Courant Number mean: 0.0840862 max: 0.425636
Time = 0.13

diagonal:  Solving for rho, Initial residual = 0, Final residual = 0, No Iterations 0
DILUPBiCGStab:  Solving for Ux, Initial residual = 0.0091374, Final residual = 3.10327e-08, No Iterations 2
DILUPBiCGStab:  Solving for Uy, Initial residual = 0.00609838, Final residual = 4.87514e-08, No Iterations 2
DILUPBiCGStab:  Solving for h, Initial residual = 0.00244116, Final residual = 9.33943e-07, No Iterations 9
DICPCG:  Solving for p_rgh, Initial residual = 0.00159017, Final residual = 1.27856e-05, No Iterations 141
diagonal:  Solving for rho, Initial residual = 0, Final residual = 0, No Iterations 0
time step continuity errors : sum local = 6.00629e-10, global = 3.47898e-12, cumulative = -1.25619e-07
DICPCG:  Solving for p_rgh, Initial residual = 0.000380167, Final residual = 8.84274e-09, No Iterations 191
diagonal:  Solving for rho, Initial residual = 0, Final residual = 0, No Iterations 0
time step continuity errors : sum local = 1.9957e-10, global = -1.02534e-12, cumulative = -1.2562e-07
ExecutionTime = 4.92 s  ClockTime = 5 s

Courant Number mean: 0.0840896 max: 0.426149
Time = 0.14

diagonal:  Solving for rho, Initial residual = 0, Final residual = 0, No Iterations 0
DILUPBiCGStab:  Solving for Ux, Initial residual = 0.00809089, Final residual = 2.81024e-08, No Iterations 2
DILUPBiCGStab:  Solving for Uy, Initial residual = 0.00613022, Final residual = 4.67278e-08, No Iterations 2
DILUPBiCGStab:  Solving for h, Initial residual = 0.00262346, Final residual = 6.22296e-07, No Iterations 9
DICPCG:  Solving for p_rgh, Initial residual = 0.00179557, Final residual = 1.55028e-05, No Iterations 139
diagonal:  Solving for rho, Initial residual = 0, Final residual = 0, No Iterations 0
time step continuity errors : sum local = 6.35945e-10, global = -8.02435e-12, cumulative = -1.25628e-07
DICPCG:  Solving for p_rgh, Initial residual = 0.000425579, Final residual = 9.16257e-09, No Iterations 191
diagonal:  Solving for rho, Initial residual = 0, Final residual = 0, No Iterations 0
time step continuity errors : sum local = 1.97539e-10, global = 7.02707e-13, cumulative = -1.25627e-07
ExecutionTime = 5.24 s  ClockTime = 5 s

Courant Number mean: 0.0840901 max: 0.426634
Time = 0.15

diagonal:  Solving for rho, Initial residual = 0, Final residual = 0, No Iterations 0
DILUPBiCGStab:  Solving for Ux, Initial residual = 0.00707463, Final residual = 9.9337e-07, No Iterations 1
DILUPBiCGStab:  Solving for Uy, Initial residual = 0.00617292, Final residual = 4.49734e-08, No Iterations 2
DILUPBiCGStab:  Solving for h, Initial residual = 0.0026777, Final residual = 9.65189e-07, No Iterations 8
DICPCG:  Solving for p_rgh, Initial residual = 0.00141331, Final residual = 1.32096e-05, No Iterations 149
diagonal:  Solving for rho, Initial residual = 0, Final residual = 0, No Iterations 0
time step continuity errors : sum local = 4.86326e-10, global = -1.10376e-12, cumulative = -1.25628e-07
DICPCG:  Solving for p_rgh, Initial residual = 0.000339361, Final residual = 9.82658e-09, No Iterations 190
diagonal:  Solving for rho, Initial residual = 0, Final residual = 0, No Iterations 0
time step continuity errors : sum local = 2.00555e-10, global = 7.10967e-13, cumulative = -1.25628e-07
ExecutionTime = 5.56 s  ClockTime = 6 s

Courant Number mean: 0.0840897 max: 0.427096
Time = 0.16

diagonal:  Solving for rho, Initial residual = 0, Final residual = 0, No Iterations 0
DILUPBiCGStab:  Solving for Ux, Initial residual = 0.00645936, Final residual = 9.18892e-07, No Iterations 1
DILUPBiCGStab:  Solving for Uy, Initial residual = 0.00622374, Final residual = 4.34415e-08, No Iterations 2
DILUPBiCGStab:  Solving for h, Initial residual = 0.00223242, Final residual = 6.3966e-07, No Iterations 9
DICPCG:  Solving for p_rgh, Initial residual = 0.00115573, Final residual = 1.11824e-05, No Iterations 149
diagonal:  Solving for rho, Initial residual = 0, Final residual = 0, No Iterations 0
time step continuity errors : sum local = 3.97886e-10, global = 1.2954e-12, cumulative = -1.25626e-07
DICPCG:  Solving for p_rgh, Initial residual = 0.000280445, Final residual = 9.73693e-09, No Iterations 189
diagonal:  Solving for rho, Initial residual = 0, Final residual = 0, No Iterations 0
time step continuity errors : sum local = 1.95337e-10, global = 2.07714e-14, cumulative = -1.25626e-07
ExecutionTime = 5.88 s  ClockTime = 6 s

Courant Number mean: 0.0840897 max: 0.42754
Time = 0.17

diagonal:  Solving for rho, Initial residual = 0, Final residual = 0, No Iterations 0
DILUPBiCGStab:  Solving for Ux, Initial residual = 0.00611406, Final residual = 8.57782e-07, No Iterations 1
DILUPBiCGStab:  Solving for Uy, Initial residual = 0.00627737, Final residual = 4.20475e-08, No Iterations 2
DILUPBiCGStab:  Solving for h, Initial residual = 0.00196651, Final residual = 6.65115e-07, No Iterations 9
DICPCG:  Solving for p_rgh, Initial residual = 0.00110552, Final residual = 9.96553e-06, No Iterations 150
diagonal:  Solving for rho, Initial residual = 0, Final residual = 0, No Iterations 0
time step continuity errors : sum local = 3.64235e-10, global = 7.36416e-13, cumulative = -1.25626e-07
DICPCG:  Solving for p_rgh, Initial residual = 0.000255075, Final residual = 8.45088e-09, No Iterations 189
diagonal:  Solving for rho, Initial residual = 0, Final residual = 0, No Iterations 0
time step continuity errors : sum local = 1.97793e-10, global = -6.26838e-14, cumulative = -1.25626e-07
ExecutionTime = 6.21 s  ClockTime = 6 s

Courant Number mean: 0.0840903 max: 0.427968
Time = 0.18

diagonal:  Solving for rho, Initial residual = 0, Final residual = 0, No Iterations 0
DILUPBiCGStab:  Solving for Ux, Initial residual = 0.00583822, Final residual = 8.0367e-07, No Iterations 1
DILUPBiCGStab:  Solving for Uy, Initial residual = 0.00633294, Final residual = 4.0794e-08, No Iterations 2
DILUPBiCGStab:  Solving for h, Initial residual = 0.00190649, Final residual = 6.53079e-07, No Iterations 9
DICPCG:  Solving for p_rgh, Initial residual = 0.000942586, Final residual = 8.98811e-06, No Iterations 150
diagonal:  Solving for rho, Initial residual = 0, Final residual = 0, No Iterations 0
time step continuity errors : sum local = 3.42968e-10, global = 1.15822e-12, cumulative = -1.25625e-07
DICPCG:  Solving for p_rgh, Initial residual = 0.000238203, Final residual = 8.28799e-09, No Iterations 189
diagonal:  Solving for rho, Initial residual = 0, Final residual = 0, No Iterations 0
time step continuity errors : sum local = 1.97739e-10, global = 1.06614e-12, cumulative = -1.25623e-07
ExecutionTime = 6.54 s  ClockTime = 7 s

Courant Number mean: 0.0840911 max: 0.428379
Time = 0.19

diagonal:  Solving for rho, Initial residual = 0, Final residual = 0, No Iterations 0
DILUPBiCGStab:  Solving for Ux, Initial residual = 0.00555058, Final residual = 7.54313e-07, No Iterations 1
DILUPBiCGStab:  Solving for Uy, Initial residual = 0.0063898, Final residual = 3.96364e-08, No Iterations 2
DILUPBiCGStab:  Solving for h, Initial residual = 0.00191837, Final residual = 6.25367e-07, No Iterations 9
DICPCG:  Solving for p_rgh, Initial residual = 0.000918103, Final residual = 7.45565e-06, No Iterations 150
diagonal:  Solving for rho, Initial residual = 0, Final residual = 0, No Iterations 0
time step continuity errors : sum local = 2.99653e-10, global = 8.71813e-13, cumulative = -1.25623e-07
DICPCG:  Solving for p_rgh, Initial residual = 0.000232845, Final residual = 8.24301e-09, No Iterations 189
diagonal:  Solving for rho, Initial residual = 0, Final residual = 0, No Iterations 0
time step continuity errors : sum local = 1.97065e-10, global = -2.49436e-13, cumulative = -1.25623e-07
ExecutionTime = 6.86 s  ClockTime = 7 s

Courant Number mean: 0.0840919 max: 0.428774
Time = 0.2

diagonal:  Solving for rho, Initial residual = 0, Final residual = 0, No Iterations 0
DILUPBiCGStab:  Solving for Ux, Initial residual = 0.00525875, Final residual = 7.09317e-07, No Iterations 1
DILUPBiCGStab:  Solving for Uy, Initial residual = 0.00645042, Final residual = 3.85725e-08, No Iterations 2
DILUPBiCGStab:  Solving for h, Initial residual = 0.00192507, Final residual = 9.86663e-07, No Iterations 8
DICPCG:  Solving for p_rgh, Initial residual = 0.000873008, Final residual = 7.27012e-06, No Iterations 150
diagonal:  Solving for rho, Initial residual = 0, Final residual = 0, No Iterations 0
time step continuity errors : sum local = 2.94367e-10, global = 1.01906e-12, cumulative = -1.25622e-07
DICPCG:  Solving for p_rgh, Initial residual = 0.000225202, Final residual = 7.79834e-09, No Iterations 189
diagonal:  Solving for rho, Initial residual = 0, Final residual = 0, No Iterations 0
time step continuity errors : sum local = 1.93928e-10, global = -1.91243e-13, cumulative = -1.25622e-07
ExecutionTime = 7.54 s  ClockTime = 8 s

Courant Number mean: 0.0840926 max: 0.429152
Time = 0.21

diagonal:  Solving for rho, Initial residual = 0, Final residual = 0, No Iterations 0
DILUPBiCGStab:  Solving for Ux, Initial residual = 0.00498889, Final residual = 6.685e-07, No Iterations 1
DILUPBiCGStab:  Solving for Uy, Initial residual = 0.00651061, Final residual = 3.75944e-08, No Iterations 2
DILUPBiCGStab:  Solving for h, Initial residual = 0.00190504, Final residual = 6.12747e-07, No Iterations 9
DICPCG:  Solving for p_rgh, Initial residual = 0.000818467, Final residual = 7.48752e-06, No Iterations 150
diagonal:  Solving for rho, Initial residual = 0, Final residual = 0, No Iterations 0
time step continuity errors : sum local = 2.87933e-10, global = 1.74096e-12, cumulative = -1.2562e-07
DICPCG:  Solving for p_rgh, Initial residual = 0.000214518, Final residual = 9.6527e-09, No Iterations 188
diagonal:  Solving for rho, Initial residual = 0, Final residual = 0, No Iterations 0
time step continuity errors : sum local = 1.9808e-10, global = 5.86381e-13, cumulative = -1.2562e-07
ExecutionTime = 7.87 s  ClockTime = 8 s

Courant Number mean: 0.0840933 max: 0.429514
Time = 0.22

diagonal:  Solving for rho, Initial residual = 0, Final residual = 0, No Iterations 0
DILUPBiCGStab:  Solving for Ux, Initial residual = 0.00475149, Final residual = 6.31475e-07, No Iterations 1
DILUPBiCGStab:  Solving for Uy, Initial residual = 0.00656918, Final residual = 3.6672e-08, No Iterations 2
DILUPBiCGStab:  Solving for h, Initial residual = 0.00187365, Final residual = 9.67952e-07, No Iterations 8
DICPCG:  Solving for p_rgh, Initial residual = 0.000775196, Final residual = 7.20596e-06, No Iterations 150
diagonal:  Solving for rho, Initial residual = 0, Final residual = 0, No Iterations 0
time step continuity errors : sum local = 2.79966e-10, global = 1.56456e-12, cumulative = -1.25618e-07
DICPCG:  Solving for p_rgh, Initial residual = 0.000206279, Final residual = 9.27479e-09, No Iterations 188
diagonal:  Solving for rho, Initial residual = 0, Final residual = 0, No Iterations 0
time step continuity errors : sum local = 1.99149e-10, global = -1.27746e-13, cumulative = -1.25618e-07
ExecutionTime = 8.19 s  ClockTime = 8 s

Courant Number mean: 0.084094 max: 0.429862
Time = 0.23

diagonal:  Solving for rho, Initial residual = 0, Final residual = 0, No Iterations 0
DILUPBiCGStab:  Solving for Ux, Initial residual = 0.0045451, Final residual = 5.97722e-07, No Iterations 1
DILUPBiCGStab:  Solving for Uy, Initial residual = 0.00662571, Final residual = 3.57987e-08, No Iterations 2
DILUPBiCGStab:  Solving for h, Initial residual = 0.0018458, Final residual = 9.90822e-07, No Iterations 8
DICPCG:  Solving for p_rgh, Initial residual = 0.000732956, Final residual = 7.26012e-06, No Iterations 150
diagonal:  Solving for rho, Initial residual = 0, Final residual = 0, No Iterations 0
time step continuity errors : sum local = 2.77331e-10, global = 6.44733e-13, cumulative = -1.25618e-07
DICPCG:  Solving for p_rgh, Initial residual = 0.000196631, Final residual = 8.20173e-09, No Iterations 188
diagonal:  Solving for rho, Initial residual = 0, Final residual = 0, No Iterations 0
time step continuity errors : sum local = 1.97947e-10, global = 6.6486e-13, cumulative = -1.25617e-07
ExecutionTime = 8.51 s  ClockTime = 9 s

Courant Number mean: 0.0840948 max: 0.430196
Time = 0.24

diagonal:  Solving for rho, Initial residual = 0, Final residual = 0, No Iterations 0
DILUPBiCGStab:  Solving for Ux, Initial residual = 0.00435866, Final residual = 5.66784e-07, No Iterations 1
DILUPBiCGStab:  Solving for Uy, Initial residual = 0.0066723, Final residual = 3.49355e-08, No Iterations 2
DILUPBiCGStab:  Solving for h, Initial residual = 0.00182473, Final residual = 9.97424e-07, No Iterations 8
DICPCG:  Solving for p_rgh, Initial residual = 0.000704767, Final residual = 6.09802e-06, No Iterations 151
diagonal:  Solving for rho, Initial residual = 0, Final residual = 0, No Iterations 0
time step continuity errors : sum local = 2.52812e-10, global = -1.19482e-12, cumulative = -1.25618e-07
DICPCG:  Solving for p_rgh, Initial residual = 0.000189493, Final residual = 8.34126e-09, No Iterations 188
diagonal:  Solving for rho, Initial residual = 0, Final residual = 0, No Iterations 0
time step continuity errors : sum local = 1.95992e-10, global = -5.08869e-13, cumulative = -1.25619e-07
ExecutionTime = 8.84 s  ClockTime = 9 s

Courant Number mean: 0.0840956 max: 0.430516
Time = 0.25

diagonal:  Solving for rho, Initial residual = 0, Final residual = 0, No Iterations 0
DILUPBiCGStab:  Solving for Ux, Initial residual = 0.004186, Final residual = 5.38321e-07, No Iterations 1
DILUPBiCGStab:  Solving for Uy, Initial residual = 0.00670288, Final residual = 3.40311e-08, No Iterations 2
DILUPBiCGStab:  Solving for h, Initial residual = 0.00180776, Final residual = 9.9666e-07, No Iterations 8
DICPCG:  Solving for p_rgh, Initial residual = 0.000662567, Final residual = 6.54161e-06, No Iterations 150
diagonal:  Solving for rho, Initial residual = 0, Final residual = 0, No Iterations 0
time step continuity errors : sum local = 2.56844e-10, global = 4.71351e-13, cumulative = -1.25618e-07
DICPCG:  Solving for p_rgh, Initial residual = 0.00018206, Final residual = 9.74263e-09, No Iterations 186
diagonal:  Solving for rho, Initial residual = 0, Final residual = 0, No Iterations 0
time step continuity errors : sum local = 1.94143e-10, global = -8.19228e-14, cumulative = -1.25618e-07
ExecutionTime = 9.16 s  ClockTime = 9 s

Courant Number mean: 0.0840964 max: 0.430823
Time = 0.26

diagonal:  Solving for rho, Initial residual = 0, Final residual = 0, No Iterations 0
DILUPBiCGStab:  Solving for Ux, Initial residual = 0.00402546, Final residual = 5.12131e-07, No Iterations 1
DILUPBiCGStab:  Solving for Uy, Initial residual = 0.00670226, Final residual = 3.30334e-08, No Iterations 2
DILUPBiCGStab:  Solving for h, Initial residual = 0.00179212, Final residual = 9.94364e-07, No Iterations 8
DICPCG:  Solving for p_rgh, Initial residual = 0.000642554, Final residual = 5.41937e-06, No Iterations 151
diagonal:  Solving for rho, Initial residual = 0, Final residual = 0, No Iterations 0
time step continuity errors : sum local = 2.39851e-10, global = -7.90935e-13, cumulative = -1.25619e-07
DICPCG:  Solving for p_rgh, Initial residual = 0.000178513, Final residual = 9.76066e-09, No Iterations 185
diagonal:  Solving for rho, Initial residual = 0, Final residual = 0, No Iterations 0
time step continuity errors : sum local = 1.93583e-10, global = 5.75349e-13, cumulative = -1.25619e-07
ExecutionTime = 9.48 s  ClockTime = 10 s

Courant Number mean: 0.0840972 max: 0.431117
Time = 0.27

diagonal:  Solving for rho, Initial residual = 0, Final residual = 0, No Iterations 0
DILUPBiCGStab:  Solving for Ux, Initial residual = 0.00387634, Final residual = 4.88057e-07, No Iterations 1
DILUPBiCGStab:  Solving for Uy, Initial residual = 0.00666913, Final residual = 3.19332e-08, No Iterations 2
DILUPBiCGStab:  Solving for h, Initial residual = 0.00177694, Final residual = 9.91879e-07, No Iterations 8
DICPCG:  Solving for p_rgh, Initial residual = 0.000624464, Final residual = 5.79103e-06, No Iterations 150
diagonal:  Solving for rho, Initial residual = 0, Final residual = 0, No Iterations 0
time step continuity errors : sum local = 2.44799e-10, global = 1.07542e-12, cumulative = -1.25617e-07
DICPCG:  Solving for p_rgh, Initial residual = 0.000175761, Final residual = 9.14073e-09, No Iterations 185
diagonal:  Solving for rho, Initial residual = 0, Final residual = 0, No Iterations 0
time step continuity errors : sum local = 1.90671e-10, global = -3.65038e-14, cumulative = -1.25617e-07
ExecutionTime = 9.81 s  ClockTime = 10 s

Courant Number mean: 0.084098 max: 0.431398
Time = 0.28

diagonal:  Solving for rho, Initial residual = 0, Final residual = 0, No Iterations 0
DILUPBiCGStab:  Solving for Ux, Initial residual = 0.00373792, Final residual = 4.65787e-07, No Iterations 1
DILUPBiCGStab:  Solving for Uy, Initial residual = 0.00662281, Final residual = 3.08303e-08, No Iterations 2
DILUPBiCGStab:  Solving for h, Initial residual = 0.0017623, Final residual = 9.87836e-07, No Iterations 8
DICPCG:  Solving for p_rgh, Initial residual = 0.000612632, Final residual = 5.8296e-06, No Iterations 150
diagonal:  Solving for rho, Initial residual = 0, Final residual = 0, No Iterations 0
time step continuity errors : sum local = 2.40312e-10, global = 3.25716e-13, cumulative = -1.25617e-07
DICPCG:  Solving for p_rgh, Initial residual = 0.000174063, Final residual = 9.02135e-09, No Iterations 185
diagonal:  Solving for rho, Initial residual = 0, Final residual = 0, No Iterations 0
time step continuity errors : sum local = 1.96061e-10, global = 4.83833e-13, cumulative = -1.25617e-07
ExecutionTime = 10.15 s  ClockTime = 10 s

Courant Number mean: 0.0840988 max: 0.431668
Time = 0.29

diagonal:  Solving for rho, Initial residual = 0, Final residual = 0, No Iterations 0
DILUPBiCGStab:  Solving for Ux, Initial residual = 0.00360906, Final residual = 4.45076e-07, No Iterations 1
DILUPBiCGStab:  Solving for Uy, Initial residual = 0.00656842, Final residual = 2.97606e-08, No Iterations 2
DILUPBiCGStab:  Solving for h, Initial residual = 0.0017486, Final residual = 9.81228e-07, No Iterations 8
DICPCG:  Solving for p_rgh, Initial residual = 0.000579935, Final residual = 5.68459e-06, No Iterations 149
diagonal:  Solving for rho, Initial residual = 0, Final residual = 0, No Iterations 0
time step continuity errors : sum local = 2.33841e-10, global = 6.37613e-13, cumulative = -1.25616e-07
DICPCG:  Solving for p_rgh, Initial residual = 0.000166811, Final residual = 8.66366e-09, No Iterations 185
diagonal:  Solving for rho, Initial residual = 0, Final residual = 0, No Iterations 0
time step continuity errors : sum local = 1.93296e-10, global = -3.72836e-13, cumulative = -1.25616e-07
ExecutionTime = 10.47 s  ClockTime = 11 s

Courant Number mean: 0.0840996 max: 0.431926
Time = 0.3

diagonal:  Solving for rho, Initial residual = 0, Final residual = 0, No Iterations 0
DILUPBiCGStab:  Solving for Ux, Initial residual = 0.0034889, Final residual = 4.25775e-07, No Iterations 1
DILUPBiCGStab:  Solving for Uy, Initial residual = 0.00651095, Final residual = 2.87212e-08, No Iterations 2
DILUPBiCGStab:  Solving for h, Initial residual = 0.00173583, Final residual = 9.72521e-07, No Iterations 8
DICPCG:  Solving for p_rgh, Initial residual = 0.00055672, Final residual = 5.52371e-06, No Iterations 143
diagonal:  Solving for rho, Initial residual = 0, Final residual = 0, No Iterations 0
time step continuity errors : sum local = 2.27811e-10, global = 1.54441e-12, cumulative = -1.25615e-07
DICPCG:  Solving for p_rgh, Initial residual = 0.000162657, Final residual = 9.8157e-09, No Iterations 184
diagonal:  Solving for rho, Initial residual = 0, Final residual = 0, No Iterations 0
time step continuity errors : sum local = 1.90525e-10, global = -2.60406e-13, cumulative = -1.25615e-07
ExecutionTime = 10.78 s  ClockTime = 11 s

Courant Number mean: 0.0841005 max: 0.432173
Time = 0.31

diagonal:  Solving for rho, Initial residual = 0, Final residual = 0, No Iterations 0
DILUPBiCGStab:  Solving for Ux, Initial residual = 0.00337845, Final residual = 4.07754e-07, No Iterations 1
DILUPBiCGStab:  Solving for Uy, Initial residual = 0.00645091, Final residual = 9.91391e-07, No Iterations 1
DILUPBiCGStab:  Solving for h, Initial residual = 0.00172391, Final residual = 9.62476e-07, No Iterations 8
DICPCG:  Solving for p_rgh, Initial residual = 0.000542287, Final residual = 4.80969e-06, No Iterations 142
diagonal:  Solving for rho, Initial residual = 0, Final residual = 0, No Iterations 0
time step continuity errors : sum local = 2.16379e-10, global = 5.42701e-13, cumulative = -1.25615e-07
DICPCG:  Solving for p_rgh, Initial residual = 0.000158599, Final residual = 9.62394e-09, No Iterations 184
diagonal:  Solving for rho, Initial residual = 0, Final residual = 0, No Iterations 0
time step continuity errors : sum local = 1.93611e-10, global = -9.04243e-13, cumulative = -1.25615e-07
ExecutionTime = 11.1 s  ClockTime = 11 s

Courant Number mean: 0.0841013 max: 0.432409
Time = 0.32

diagonal:  Solving for rho, Initial residual = 0, Final residual = 0, No Iterations 0
DILUPBiCGStab:  Solving for Ux, Initial residual = 0.00327546, Final residual = 3.90894e-07, No Iterations 1
DILUPBiCGStab:  Solving for Uy, Initial residual = 0.00638901, Final residual = 9.64396e-07, No Iterations 1
DILUPBiCGStab:  Solving for h, Initial residual = 0.0017126, Final residual = 9.52008e-07, No Iterations 8
DICPCG:  Solving for p_rgh, Initial residual = 0.000536794, Final residual = 5.06299e-06, No Iterations 141
diagonal:  Solving for rho, Initial residual = 0, Final residual = 0, No Iterations 0
time step continuity errors : sum local = 2.2074e-10, global = 1.33001e-12, cumulative = -1.25614e-07
DICPCG:  Solving for p_rgh, Initial residual = 0.000157543, Final residual = 9.94967e-09, No Iterations 183
diagonal:  Solving for rho, Initial residual = 0, Final residual = 0, No Iterations 0
time step continuity errors : sum local = 1.92413e-10, global = 4.06374e-13, cumulative = -1.25614e-07
ExecutionTime = 11.41 s  ClockTime = 12 s

Courant Number mean: 0.0841022 max: 0.432634
Time = 0.33

diagonal:  Solving for rho, Initial residual = 0, Final residual = 0, No Iterations 0
DILUPBiCGStab:  Solving for Ux, Initial residual = 0.00317886, Final residual = 3.75094e-07, No Iterations 1
DILUPBiCGStab:  Solving for Uy, Initial residual = 0.00632682, Final residual = 9.38201e-07, No Iterations 1
DILUPBiCGStab:  Solving for h, Initial residual = 0.00170192, Final residual = 9.41669e-07, No Iterations 8
DICPCG:  Solving for p_rgh, Initial residual = 0.000515914, Final residual = 4.4495e-06, No Iterations 142
diagonal:  Solving for rho, Initial residual = 0, Final residual = 0, No Iterations 0
time step continuity errors : sum local = 2.09208e-10, global = 4.89491e-13, cumulative = -1.25613e-07
DICPCG:  Solving for p_rgh, Initial residual = 0.000154152, Final residual = 9.65922e-09, No Iterations 183
diagonal:  Solving for rho, Initial residual = 0, Final residual = 0, No Iterations 0
time step continuity errors : sum local = 1.90595e-10, global = -7.11296e-13, cumulative = -1.25614e-07
ExecutionTime = 11.73 s  ClockTime = 12 s

Courant Number mean: 0.0841031 max: 0.43285
Time = 0.34

diagonal:  Solving for rho, Initial residual = 0, Final residual = 0, No Iterations 0
DILUPBiCGStab:  Solving for Ux, Initial residual = 0.00308807, Final residual = 3.60321e-07, No Iterations 1
DILUPBiCGStab:  Solving for Uy, Initial residual = 0.00626297, Final residual = 9.12781e-07, No Iterations 1
DILUPBiCGStab:  Solving for h, Initial residual = 0.00169168, Final residual = 9.31686e-07, No Iterations 8
DICPCG:  Solving for p_rgh, Initial residual = 0.00049112, Final residual = 4.47375e-06, No Iterations 144
diagonal:  Solving for rho, Initial residual = 0, Final residual = 0, No Iterations 0
time step continuity errors : sum local = 2.11491e-10, global = -1.83433e-12, cumulative = -1.25616e-07
DICPCG:  Solving for p_rgh, Initial residual = 0.000148877, Final residual = 9.20488e-09, No Iterations 183
diagonal:  Solving for rho, Initial residual = 0, Final residual = 0, No Iterations 0
time step continuity errors : sum local = 1.92944e-10, global = 3.74914e-13, cumulative = -1.25615e-07
ExecutionTime = 12.06 s  ClockTime = 12 s

Courant Number mean: 0.084104 max: 0.433055
Time = 0.35

diagonal:  Solving for rho, Initial residual = 0, Final residual = 0, No Iterations 0
DILUPBiCGStab:  Solving for Ux, Initial residual = 0.00300257, Final residual = 3.46453e-07, No Iterations 1
DILUPBiCGStab:  Solving for Uy, Initial residual = 0.00619864, Final residual = 8.88476e-07, No Iterations 1
DILUPBiCGStab:  Solving for h, Initial residual = 0.00168191, Final residual = 9.22047e-07, No Iterations 8
DICPCG:  Solving for p_rgh, Initial residual = 0.000485745, Final residual = 4.49301e-06, No Iterations 150
diagonal:  Solving for rho, Initial residual = 0, Final residual = 0, No Iterations 0
time step continuity errors : sum local = 2.12361e-10, global = -1.41702e-12, cumulative = -1.25617e-07
DICPCG:  Solving for p_rgh, Initial residual = 0.000148354, Final residual = 8.78471e-09, No Iterations 183
diagonal:  Solving for rho, Initial residual = 0, Final residual = 0, No Iterations 0
time step continuity errors : sum local = 1.95003e-10, global = 2.8657e-13, cumulative = -1.25617e-07
ExecutionTime = 12.4 s  ClockTime = 13 s

Courant Number mean: 0.0841048 max: 0.433251
Time = 0.36

diagonal:  Solving for rho, Initial residual = 0, Final residual = 0, No Iterations 0
DILUPBiCGStab:  Solving for Ux, Initial residual = 0.00292184, Final residual = 3.33433e-07, No Iterations 1
DILUPBiCGStab:  Solving for Uy, Initial residual = 0.00613376, Final residual = 8.64774e-07, No Iterations 1
DILUPBiCGStab:  Solving for h, Initial residual = 0.00167256, Final residual = 9.13049e-07, No Iterations 8
DICPCG:  Solving for p_rgh, Initial residual = 0.000489122, Final residual = 3.82803e-06, No Iterations 151
diagonal:  Solving for rho, Initial residual = 0, Final residual = 0, No Iterations 0
time step continuity errors : sum local = 2.07262e-10, global = -1.97054e-12, cumulative = -1.25619e-07
DICPCG:  Solving for p_rgh, Initial residual = 0.000148538, Final residual = 8.40211e-09, No Iterations 183
diagonal:  Solving for rho, Initial residual = 0, Final residual = 0, No Iterations 0
time step continuity errors : sum local = 1.88953e-10, global = 6.3353e-13, cumulative = -1.25618e-07
ExecutionTime = 12.74 s  ClockTime = 13 s

Courant Number mean: 0.0841057 max: 0.433438
Time = 0.37

diagonal:  Solving for rho, Initial residual = 0, Final residual = 0, No Iterations 0
DILUPBiCGStab:  Solving for Ux, Initial residual = 0.00284536, Final residual = 3.21275e-07, No Iterations 1
DILUPBiCGStab:  Solving for Uy, Initial residual = 0.00606773, Final residual = 8.4175e-07, No Iterations 1
DILUPBiCGStab:  Solving for h, Initial residual = 0.00166355, Final residual = 9.04221e-07, No Iterations 8
DICPCG:  Solving for p_rgh, Initial residual = 0.000463718, Final residual = 4.59827e-06, No Iterations 150
diagonal:  Solving for rho, Initial residual = 0, Final residual = 0, No Iterations 0
time step continuity errors : sum local = 2.11428e-10, global = -9.6582e-13, cumulative = -1.25619e-07
DICPCG:  Solving for p_rgh, Initial residual = 0.000144716, Final residual = 9.41605e-09, No Iterations 182
diagonal:  Solving for rho, Initial residual = 0, Final residual = 0, No Iterations 0
time step continuity errors : sum local = 1.90991e-10, global = -1.25734e-13, cumulative = -1.25619e-07
ExecutionTime = 13.07 s  ClockTime = 13 s

Courant Number mean: 0.0841066 max: 0.433615
Time = 0.38

diagonal:  Solving for rho, Initial residual = 0, Final residual = 0, No Iterations 0
DILUPBiCGStab:  Solving for Ux, Initial residual = 0.00277271, Final residual = 3.09806e-07, No Iterations 1
DILUPBiCGStab:  Solving for Uy, Initial residual = 0.00600186, Final residual = 8.19554e-07, No Iterations 1
DILUPBiCGStab:  Solving for h, Initial residual = 0.00165484, Final residual = 8.95989e-07, No Iterations 8
DICPCG:  Solving for p_rgh, Initial residual = 0.0004566, Final residual = 3.94259e-06, No Iterations 151
diagonal:  Solving for rho, Initial residual = 0, Final residual = 0, No Iterations 0
time step continuity errors : sum local = 2.07316e-10, global = -1.7027e-12, cumulative = -1.25621e-07
DICPCG:  Solving for p_rgh, Initial residual = 0.000143223, Final residual = 9.05e-09, No Iterations 182
diagonal:  Solving for rho, Initial residual = 0, Final residual = 0, No Iterations 0
time step continuity errors : sum local = 1.9169e-10, global = 1.4142e-12, cumulative = -1.25619e-07
ExecutionTime = 13.42 s  ClockTime = 14 s

Courant Number mean: 0.0841075 max: 0.433785
Time = 0.39

diagonal:  Solving for rho, Initial residual = 0, Final residual = 0, No Iterations 0
DILUPBiCGStab:  Solving for Ux, Initial residual = 0.00270343, Final residual = 2.98945e-07, No Iterations 1
DILUPBiCGStab:  Solving for Uy, Initial residual = 0.00593524, Final residual = 7.97976e-07, No Iterations 1
DILUPBiCGStab:  Solving for h, Initial residual = 0.00164654, Final residual = 8.88012e-07, No Iterations 8
DICPCG:  Solving for p_rgh, Initial residual = 0.000444281, Final residual = 3.87836e-06, No Iterations 151
diagonal:  Solving for rho, Initial residual = 0, Final residual = 0, No Iterations 0
time step continuity errors : sum local = 2.00049e-10, global = -1.46157e-12, cumulative = -1.25621e-07
DICPCG:  Solving for p_rgh, Initial residual = 0.000140846, Final residual = 9.98763e-09, No Iterations 181
diagonal:  Solving for rho, Initial residual = 0, Final residual = 0, No Iterations 0
time step continuity errors : sum local = 1.92051e-10, global = 7.58094e-13, cumulative = -1.2562e-07
ExecutionTime = 13.75 s  ClockTime = 14 s

Courant Number mean: 0.0841084 max: 0.433946
Time = 0.4

diagonal:  Solving for rho, Initial residual = 0, Final residual = 0, No Iterations 0
DILUPBiCGStab:  Solving for Ux, Initial residual = 0.00263726, Final residual = 2.88621e-07, No Iterations 1
DILUPBiCGStab:  Solving for Uy, Initial residual = 0.0058695, Final residual = 7.7718e-07, No Iterations 1
DILUPBiCGStab:  Solving for h, Initial residual = 0.00163846, Final residual = 8.80464e-07, No Iterations 8
DICPCG:  Solving for p_rgh, Initial residual = 0.000441328, Final residual = 4.28462e-06, No Iterations 151
diagonal:  Solving for rho, Initial residual = 0, Final residual = 0, No Iterations 0
time step continuity errors : sum local = 2.06639e-10, global = -8.93538e-13, cumulative = -1.25621e-07
DICPCG:  Solving for p_rgh, Initial residual = 0.000140353, Final residual = 9.4592e-09, No Iterations 175
diagonal:  Solving for rho, Initial residual = 0, Final residual = 0, No Iterations 0
time step continuity errors : sum local = 1.86351e-10, global = 6.96386e-13, cumulative = -1.2562e-07
ExecutionTime = 14.45 s  ClockTime = 15 s

Courant Number mean: 0.0841093 max: 0.434098
Time = 0.41

diagonal:  Solving for rho, Initial residual = 0, Final residual = 0, No Iterations 0
DILUPBiCGStab:  Solving for Ux, Initial residual = 0.00257509, Final residual = 2.78829e-07, No Iterations 1
DILUPBiCGStab:  Solving for Uy, Initial residual = 0.00580459, Final residual = 7.57171e-07, No Iterations 1
DILUPBiCGStab:  Solving for h, Initial residual = 0.00163063, Final residual = 8.73195e-07, No Iterations 8
DICPCG:  Solving for p_rgh, Initial residual = 0.000437821, Final residual = 4.04703e-06, No Iterations 151
diagonal:  Solving for rho, Initial residual = 0, Final residual = 0, No Iterations 0
time step continuity errors : sum local = 2.0661e-10, global = -1.08458e-12, cumulative = -1.25621e-07
DICPCG:  Solving for p_rgh, Initial residual = 0.000139289, Final residual = 8.92547e-09, No Iterations 181
diagonal:  Solving for rho, Initial residual = 0, Final residual = 0, No Iterations 0
time step continuity errors : sum local = 1.88118e-10, global = 4.21107e-14, cumulative = -1.25621e-07
ExecutionTime = 14.78 s  ClockTime = 15 s

Courant Number mean: 0.0841102 max: 0.434243
Time = 0.42

diagonal:  Solving for rho, Initial residual = 0, Final residual = 0, No Iterations 0
DILUPBiCGStab:  Solving for Ux, Initial residual = 0.0025163, Final residual = 2.69531e-07, No Iterations 1
DILUPBiCGStab:  Solving for Uy, Initial residual = 0.00573887, Final residual = 7.37696e-07, No Iterations 1
DILUPBiCGStab:  Solving for h, Initial residual = 0.00162309, Final residual = 8.66357e-07, No Iterations 8
DICPCG:  Solving for p_rgh, Initial residual = 0.000435112, Final residual = 4.30504e-06, No Iterations 151
diagonal:  Solving for rho, Initial residual = 0, Final residual = 0, No Iterations 0
time step continuity errors : sum local = 2.10651e-10, global = -2.10438e-12, cumulative = -1.25623e-07
DICPCG:  Solving for p_rgh, Initial residual = 0.000139849, Final residual = 9.95466e-09, No Iterations 180
diagonal:  Solving for rho, Initial residual = 0, Final residual = 0, No Iterations 0
time step continuity errors : sum local = 1.93751e-10, global = -7.57798e-14, cumulative = -1.25623e-07
ExecutionTime = 15.12 s  ClockTime = 15 s

Courant Number mean: 0.0841111 max: 0.434381
Time = 0.43

diagonal:  Solving for rho, Initial residual = 0, Final residual = 0, No Iterations 0
DILUPBiCGStab:  Solving for Ux, Initial residual = 0.00246029, Final residual = 2.60689e-07, No Iterations 1
DILUPBiCGStab:  Solving for Uy, Initial residual = 0.00567493, Final residual = 7.18938e-07, No Iterations 1
DILUPBiCGStab:  Solving for h, Initial residual = 0.00161579, Final residual = 8.59595e-07, No Iterations 8
DICPCG:  Solving for p_rgh, Initial residual = 0.000412258, Final residual = 3.92633e-06, No Iterations 151
diagonal:  Solving for rho, Initial residual = 0, Final residual = 0, No Iterations 0
time step continuity errors : sum local = 2.02202e-10, global = -1.14527e-12, cumulative = -1.25625e-07
DICPCG:  Solving for p_rgh, Initial residual = 0.000134296, Final residual = 9.20898e-09, No Iterations 180
diagonal:  Solving for rho, Initial residual = 0, Final residual = 0, No Iterations 0
time step continuity errors : sum local = 1.9246e-10, global = -8.36472e-13, cumulative = -1.25625e-07
ExecutionTime = 15.45 s  ClockTime = 16 s

Courant Number mean: 0.084112 max: 0.434511
Time = 0.44

diagonal:  Solving for rho, Initial residual = 0, Final residual = 0, No Iterations 0
DILUPBiCGStab:  Solving for Ux, Initial residual = 0.00240683, Final residual = 2.52273e-07, No Iterations 1
DILUPBiCGStab:  Solving for Uy, Initial residual = 0.00561154, Final residual = 7.00801e-07, No Iterations 1
DILUPBiCGStab:  Solving for h, Initial residual = 0.00160866, Final residual = 8.5342e-07, No Iterations 8
DICPCG:  Solving for p_rgh, Initial residual = 0.000407051, Final residual = 3.2394e-06, No Iterations 152
diagonal:  Solving for rho, Initial residual = 0, Final residual = 0, No Iterations 0
time step continuity errors : sum local = 1.97244e-10, global = -1.71265e-12, cumulative = -1.25627e-07
DICPCG:  Solving for p_rgh, Initial residual = 0.000131831, Final residual = 9.36338e-09, No Iterations 180
diagonal:  Solving for rho, Initial residual = 0, Final residual = 0, No Iterations 0
time step continuity errors : sum local = 1.88477e-10, global = -6.28425e-13, cumulative = -1.25628e-07
ExecutionTime = 15.79 s  ClockTime = 16 s

Courant Number mean: 0.0841129 max: 0.434633
Time = 0.45

diagonal:  Solving for rho, Initial residual = 0, Final residual = 0, No Iterations 0
DILUPBiCGStab:  Solving for Ux, Initial residual = 0.0023557, Final residual = 2.44286e-07, No Iterations 1
DILUPBiCGStab:  Solving for Uy, Initial residual = 0.00554783, Final residual = 6.83165e-07, No Iterations 1
DILUPBiCGStab:  Solving for h, Initial residual = 0.00160175, Final residual = 8.47273e-07, No Iterations 8
DICPCG:  Solving for p_rgh, Initial residual = 0.000406915, Final residual = 3.95302e-06, No Iterations 151
diagonal:  Solving for rho, Initial residual = 0, Final residual = 0, No Iterations 0
time step continuity errors : sum local = 2.02852e-10, global = -1.91895e-12, cumulative = -1.2563e-07
DICPCG:  Solving for p_rgh, Initial residual = 0.000132388, Final residual = 9.30875e-09, No Iterations 180
diagonal:  Solving for rho, Initial residual = 0, Final residual = 0, No Iterations 0
time step continuity errors : sum local = 1.93513e-10, global = -2.94639e-13, cumulative = -1.2563e-07
ExecutionTime = 16.12 s  ClockTime = 16 s

Courant Number mean: 0.0841138 max: 0.434749
Time = 0.46

diagonal:  Solving for rho, Initial residual = 0, Final residual = 0, No Iterations 0
DILUPBiCGStab:  Solving for Ux, Initial residual = 0.00230676, Final residual = 2.36696e-07, No Iterations 1
DILUPBiCGStab:  Solving for Uy, Initial residual = 0.00548532, Final residual = 6.66191e-07, No Iterations 1
DILUPBiCGStab:  Solving for h, Initial residual = 0.00159505, Final residual = 8.41561e-07, No Iterations 8
DICPCG:  Solving for p_rgh, Initial residual = 0.000398821, Final residual = 3.62068e-06, No Iterations 152
diagonal:  Solving for rho, Initial residual = 0, Final residual = 0, No Iterations 0
time step continuity errors : sum local = 2.01547e-10, global = -1.12839e-12, cumulative = -1.25631e-07
DICPCG:  Solving for p_rgh, Initial residual = 0.000130374, Final residual = 9.0502e-09, No Iterations 180
diagonal:  Solving for rho, Initial residual = 0, Final residual = 0, No Iterations 0
time step continuity errors : sum local = 1.92714e-10, global = 4.57935e-13, cumulative = -1.25631e-07
ExecutionTime = 16.46 s  ClockTime = 17 s

Courant Number mean: 0.0841148 max: 0.434859
Time = 0.47

diagonal:  Solving for rho, Initial residual = 0, Final residual = 0, No Iterations 0
DILUPBiCGStab:  Solving for Ux, Initial residual = 0.00225991, Final residual = 2.29459e-07, No Iterations 1
DILUPBiCGStab:  Solving for Uy, Initial residual = 0.00542252, Final residual = 6.4969e-07, No Iterations 1
DILUPBiCGStab:  Solving for h, Initial residual = 0.00158848, Final residual = 8.3595e-07, No Iterations 8
DICPCG:  Solving for p_rgh, Initial residual = 0.000387631, Final residual = 3.26847e-06, No Iterations 152
diagonal:  Solving for rho, Initial residual = 0, Final residual = 0, No Iterations 0
time step continuity errors : sum local = 2.01021e-10, global = -5.9143e-13, cumulative = -1.25631e-07
DICPCG:  Solving for p_rgh, Initial residual = 0.000126621, Final residual = 8.91638e-09, No Iterations 180
diagonal:  Solving for rho, Initial residual = 0, Final residual = 0, No Iterations 0
time step continuity errors : sum local = 1.92601e-10, global = 3.54226e-13, cumulative = -1.25631e-07
ExecutionTime = 16.79 s  ClockTime = 17 s

Courant Number mean: 0.0841157 max: 0.434962
Time = 0.48

diagonal:  Solving for rho, Initial residual = 0, Final residual = 0, No Iterations 0
DILUPBiCGStab:  Solving for Ux, Initial residual = 0.00221501, Final residual = 2.22555e-07, No Iterations 1
DILUPBiCGStab:  Solving for Uy, Initial residual = 0.00536016, Final residual = 6.33597e-07, No Iterations 1
DILUPBiCGStab:  Solving for h, Initial residual = 0.0015821, Final residual = 8.30715e-07, No Iterations 8
DICPCG:  Solving for p_rgh, Initial residual = 0.000385639, Final residual = 3.81553e-06, No Iterations 151
diagonal:  Solving for rho, Initial residual = 0, Final residual = 0, No Iterations 0
time step continuity errors : sum local = 2.05247e-10, global = -9.30474e-13, cumulative = -1.25632e-07
DICPCG:  Solving for p_rgh, Initial residual = 0.000128475, Final residual = 8.89449e-09, No Iterations 180
diagonal:  Solving for rho, Initial residual = 0, Final residual = 0, No Iterations 0
time step continuity errors : sum local = 1.90249e-10, global = 4.61889e-13, cumulative = -1.25631e-07
ExecutionTime = 17.13 s  ClockTime = 17 s

Courant Number mean: 0.0841166 max: 0.435058
Time = 0.49

diagonal:  Solving for rho, Initial residual = 0, Final residual = 0, No Iterations 0
DILUPBiCGStab:  Solving for Ux, Initial residual = 0.00217186, Final residual = 2.1596e-07, No Iterations 1
DILUPBiCGStab:  Solving for Uy, Initial residual = 0.00529991, Final residual = 6.18181e-07, No Iterations 1
DILUPBiCGStab:  Solving for h, Initial residual = 0.00157587, Final residual = 8.25523e-07, No Iterations 8
DICPCG:  Solving for p_rgh, Initial residual = 0.000376245, Final residual = 3.6177e-06, No Iterations 151
diagonal:  Solving for rho, Initial residual = 0, Final residual = 0, No Iterations 0
time step continuity errors : sum local = 1.99771e-10, global = -1.55961e-12, cumulative = -1.25633e-07
DICPCG:  Solving for p_rgh, Initial residual = 0.000127199, Final residual = 8.63977e-09, No Iterations 180
diagonal:  Solving for rho, Initial residual = 0, Final residual = 0, No Iterations 0
time step continuity errors : sum local = 1.88467e-10, global = 3.82561e-13, cumulative = -1.25632e-07
ExecutionTime = 17.46 s  ClockTime = 18 s

Courant Number mean: 0.0841175 max: 0.435149
Time = 0.5

diagonal:  Solving for rho, Initial residual = 0, Final residual = 0, No Iterations 0
DILUPBiCGStab:  Solving for Ux, Initial residual = 0.00213036, Final residual = 2.09693e-07, No Iterations 1
DILUPBiCGStab:  Solving for Uy, Initial residual = 0.00523884, Final residual = 6.03156e-07, No Iterations 1
DILUPBiCGStab:  Solving for h, Initial residual = 0.0015698, Final residual = 8.20781e-07, No Iterations 8
DICPCG:  Solving for p_rgh, Initial residual = 0.000374266, Final residual = 3.27852e-06, No Iterations 152
diagonal:  Solving for rho, Initial residual = 0, Final residual = 0, No Iterations 0
time step continuity errors : sum local = 1.97308e-10, global = -5.20852e-13, cumulative = -1.25633e-07
DICPCG:  Solving for p_rgh, Initial residual = 0.000126032, Final residual = 8.72978e-09, No Iterations 180
diagonal:  Solving for rho, Initial residual = 0, Final residual = 0, No Iterations 0
time step continuity errors : sum local = 1.8714e-10, global = -4.29447e-13, cumulative = -1.25633e-07
ExecutionTime = 17.79 s  ClockTime = 18 s

Courant Number mean: 0.0841184 max: 0.435233
Time = 0.51

diagonal:  Solving for rho, Initial residual = 0, Final residual = 0, No Iterations 0
DILUPBiCGStab:  Solving for Ux, Initial residual = 0.0020904, Final residual = 2.03721e-07, No Iterations 1
DILUPBiCGStab:  Solving for Uy, Initial residual = 0.00517857, Final residual = 5.88514e-07, No Iterations 1
DILUPBiCGStab:  Solving for h, Initial residual = 0.00156386, Final residual = 9.99096e-07, No Iterations 8
DICPCG:  Solving for p_rgh, Initial residual = 0.000375194, Final residual = 3.44551e-06, No Iterations 151
diagonal:  Solving for rho, Initial residual = 0, Final residual = 0, No Iterations 0
time step continuity errors : sum local = 1.97054e-10, global = -7.00824e-13, cumulative = -1.25634e-07
DICPCG:  Solving for p_rgh, Initial residual = 0.000126299, Final residual = 8.66654e-09, No Iterations 180
diagonal:  Solving for rho, Initial residual = 0, Final residual = 0, No Iterations 0
time step continuity errors : sum local = 1.91476e-10, global = -1.18521e-13, cumulative = -1.25634e-07
ExecutionTime = 18.11 s  ClockTime = 18 s

Courant Number mean: 0.0841194 max: 0.435312
Time = 0.52

diagonal:  Solving for rho, Initial residual = 0, Final residual = 0, No Iterations 0
DILUPBiCGStab:  Solving for Ux, Initial residual = 0.00205188, Final residual = 1.98006e-07, No Iterations 1
DILUPBiCGStab:  Solving for Uy, Initial residual = 0.00511998, Final residual = 5.74422e-07, No Iterations 1
DILUPBiCGStab:  Solving for h, Initial residual = 0.00155805, Final residual = 9.88727e-07, No Iterations 8
DICPCG:  Solving for p_rgh, Initial residual = 0.000367491, Final residual = 3.54165e-06, No Iterations 151
diagonal:  Solving for rho, Initial residual = 0, Final residual = 0, No Iterations 0
time step continuity errors : sum local = 1.95961e-10, global = -1.33176e-12, cumulative = -1.25636e-07
DICPCG:  Solving for p_rgh, Initial residual = 0.00012446, Final residual = 8.30331e-09, No Iterations 180
diagonal:  Solving for rho, Initial residual = 0, Final residual = 0, No Iterations 0
time step continuity errors : sum local = 1.92073e-10, global = 2.33289e-13, cumulative = -1.25635e-07
ExecutionTime = 18.43 s  ClockTime = 19 s

Courant Number mean: 0.0841203 max: 0.435386
Time = 0.53

diagonal:  Solving for rho, Initial residual = 0, Final residual = 0, No Iterations 0
DILUPBiCGStab:  Solving for Ux, Initial residual = 0.00201481, Final residual = 1.9253e-07, No Iterations 1
DILUPBiCGStab:  Solving for Uy, Initial residual = 0.00506102, Final residual = 5.60695e-07, No Iterations 1
DILUPBiCGStab:  Solving for h, Initial residual = 0.00155237, Final residual = 9.86276e-07, No Iterations 8
DICPCG:  Solving for p_rgh, Initial residual = 0.000359777, Final residual = 3.34751e-06, No Iterations 151
diagonal:  Solving for rho, Initial residual = 0, Final residual = 0, No Iterations 0
time step continuity errors : sum local = 1.9806e-10, global = -1.66227e-12, cumulative = -1.25637e-07
DICPCG:  Solving for p_rgh, Initial residual = 0.000122071, Final residual = 8.15107e-09, No Iterations 180
diagonal:  Solving for rho, Initial residual = 0, Final residual = 0, No Iterations 0
time step continuity errors : sum local = 1.90667e-10, global = -7.67885e-13, cumulative = -1.25638e-07
ExecutionTime = 18.75 s  ClockTime = 19 s

Courant Number mean: 0.0841212 max: 0.435454
Time = 0.54

diagonal:  Solving for rho, Initial residual = 0, Final residual = 0, No Iterations 0
DILUPBiCGStab:  Solving for Ux, Initial residual = 0.00197962, Final residual = 1.87278e-07, No Iterations 1
DILUPBiCGStab:  Solving for Uy, Initial residual = 0.00500318, Final residual = 5.47356e-07, No Iterations 1
DILUPBiCGStab:  Solving for h, Initial residual = 0.00154681, Final residual = 9.7989e-07, No Iterations 8
DICPCG:  Solving for p_rgh, Initial residual = 0.000353858, Final residual = 3.28302e-06, No Iterations 151
diagonal:  Solving for rho, Initial residual = 0, Final residual = 0, No Iterations 0
time step continuity errors : sum local = 1.93111e-10, global = -7.17731e-13, cumulative = -1.25638e-07
DICPCG:  Solving for p_rgh, Initial residual = 0.000120079, Final residual = 9.49716e-09, No Iterations 179
diagonal:  Solving for rho, Initial residual = 0, Final residual = 0, No Iterations 0
time step continuity errors : sum local = 1.90658e-10, global = 1.88552e-13, cumulative = -1.25638e-07
ExecutionTime = 19.07 s  ClockTime = 19 s

Courant Number mean: 0.0841222 max: 0.435517
Time = 0.55

diagonal:  Solving for rho, Initial residual = 0, Final residual = 0, No Iterations 0
DILUPBiCGStab:  Solving for Ux, Initial residual = 0.00194589, Final residual = 1.82236e-07, No Iterations 1
DILUPBiCGStab:  Solving for Uy, Initial residual = 0.00494717, Final residual = 5.34518e-07, No Iterations 1
DILUPBiCGStab:  Solving for h, Initial residual = 0.00154137, Final residual = 9.74393e-07, No Iterations 8
DICPCG:  Solving for p_rgh, Initial residual = 0.000343394, Final residual = 3.32573e-06, No Iterations 151
diagonal:  Solving for rho, Initial residual = 0, Final residual = 0, No Iterations 0
time step continuity errors : sum local = 1.96127e-10, global = -4.0568e-13, cumulative = -1.25639e-07
DICPCG:  Solving for p_rgh, Initial residual = 0.000118062, Final residual = 9.98001e-09, No Iterations 179
diagonal:  Solving for rho, Initial residual = 0, Final residual = 0, No Iterations 0
time step continuity errors : sum local = 1.90128e-10, global = 3.61155e-13, cumulative = -1.25638e-07
ExecutionTime = 19.38 s  ClockTime = 20 s

Courant Number mean: 0.0841231 max: 0.435575
Time = 0.56

diagonal:  Solving for rho, Initial residual = 0, Final residual = 0, No Iterations 0
DILUPBiCGStab:  Solving for Ux, Initial residual = 0.00191343, Final residual = 1.77392e-07, No Iterations 1
DILUPBiCGStab:  Solving for Uy, Initial residual = 0.00489135, Final residual = 5.22059e-07, No Iterations 1
DILUPBiCGStab:  Solving for h, Initial residual = 0.00153605, Final residual = 9.69786e-07, No Iterations 8
DICPCG:  Solving for p_rgh, Initial residual = 0.000352326, Final residual = 3.28452e-06, No Iterations 151
diagonal:  Solving for rho, Initial residual = 0, Final residual = 0, No Iterations 0
time step continuity errors : sum local = 1.9695e-10, global = -1.31514e-12, cumulative = -1.2564e-07
DICPCG:  Solving for p_rgh, Initial residual = 0.000119422, Final residual = 9.49605e-09, No Iterations 179
diagonal:  Solving for rho, Initial residual = 0, Final residual = 0, No Iterations 0
time step continuity errors : sum local = 1.89821e-10, global = -5.09491e-13, cumulative = -1.2564e-07
ExecutionTime = 19.71 s  ClockTime = 20 s

Courant Number mean: 0.084124 max: 0.435628
Time = 0.57

diagonal:  Solving for rho, Initial residual = 0, Final residual = 0, No Iterations 0
DILUPBiCGStab:  Solving for Ux, Initial residual = 0.00188214, Final residual = 1.72737e-07, No Iterations 1
DILUPBiCGStab:  Solving for Uy, Initial residual = 0.00483733, Final residual = 5.10002e-07, No Iterations 1
DILUPBiCGStab:  Solving for h, Initial residual = 0.00153084, Final residual = 9.6452e-07, No Iterations 8
DICPCG:  Solving for p_rgh, Initial residual = 0.000340988, Final residual = 3.25666e-06, No Iterations 151
diagonal:  Solving for rho, Initial residual = 0, Final residual = 0, No Iterations 0
time step continuity errors : sum local = 1.97247e-10, global = -1.53453e-13, cumulative = -1.2564e-07
DICPCG:  Solving for p_rgh, Initial residual = 0.000118158, Final residual = 9.30255e-09, No Iterations 179
diagonal:  Solving for rho, Initial residual = 0, Final residual = 0, No Iterations 0
time step continuity errors : sum local = 1.91328e-10, global = -9.95858e-14, cumulative = -1.2564e-07
ExecutionTime = 20.03 s  ClockTime = 20 s

Courant Number mean: 0.0841249 max: 0.435677
Time = 0.58

diagonal:  Solving for rho, Initial residual = 0, Final residual = 0, No Iterations 0
DILUPBiCGStab:  Solving for Ux, Initial residual = 0.00185179, Final residual = 1.68264e-07, No Iterations 1
DILUPBiCGStab:  Solving for Uy, Initial residual = 0.00478435, Final residual = 4.98368e-07, No Iterations 1
DILUPBiCGStab:  Solving for h, Initial residual = 0.00152574, Final residual = 9.60417e-07, No Iterations 8
DICPCG:  Solving for p_rgh, Initial residual = 0.000334089, Final residual = 3.30646e-06, No Iterations 151
diagonal:  Solving for rho, Initial residual = 0, Final residual = 0, No Iterations 0
time step continuity errors : sum local = 1.94395e-10, global = -7.48983e-13, cumulative = -1.25641e-07
DICPCG:  Solving for p_rgh, Initial residual = 0.000115803, Final residual = 9.79966e-09, No Iterations 179
diagonal:  Solving for rho, Initial residual = 0, Final residual = 0, No Iterations 0
time step continuity errors : sum local = 1.90361e-10, global = -7.46532e-13, cumulative = -1.25642e-07
ExecutionTime = 20.34 s  ClockTime = 21 s

Courant Number mean: 0.0841259 max: 0.43572
Time = 0.59

diagonal:  Solving for rho, Initial residual = 0, Final residual = 0, No Iterations 0
DILUPBiCGStab:  Solving for Ux, Initial residual = 0.00182234, Final residual = 1.63973e-07, No Iterations 1
DILUPBiCGStab:  Solving for Uy, Initial residual = 0.00473149, Final residual = 4.87068e-07, No Iterations 1
DILUPBiCGStab:  Solving for h, Initial residual = 0.00152074, Final residual = 9.55521e-07, No Iterations 8
DICPCG:  Solving for p_rgh, Initial residual = 0.000338666, Final residual = 2.72865e-06, No Iterations 152
diagonal:  Solving for rho, Initial residual = 0, Final residual = 0, No Iterations 0
time step continuity errors : sum local = 1.92604e-10, global = -5.91729e-13, cumulative = -1.25643e-07
DICPCG:  Solving for p_rgh, Initial residual = 0.000117241, Final residual = 9.86385e-09, No Iterations 179
diagonal:  Solving for rho, Initial residual = 0, Final residual = 0, No Iterations 0
time step continuity errors : sum local = 1.90603e-10, global = -5.6197e-13, cumulative = -1.25643e-07
ExecutionTime = 20.66 s  ClockTime = 21 s

Courant Number mean: 0.0841268 max: 0.43576
Time = 0.6

diagonal:  Solving for rho, Initial residual = 0, Final residual = 0, No Iterations 0
DILUPBiCGStab:  Solving for Ux, Initial residual = 0.00179377, Final residual = 1.59849e-07, No Iterations 1
DILUPBiCGStab:  Solving for Uy, Initial residual = 0.00468046, Final residual = 4.7613e-07, No Iterations 1
DILUPBiCGStab:  Solving for h, Initial residual = 0.00151583, Final residual = 9.51779e-07, No Iterations 8
DICPCG:  Solving for p_rgh, Initial residual = 0.000345235, Final residual = 3.43644e-06, No Iterations 151
diagonal:  Solving for rho, Initial residual = 0, Final residual = 0, No Iterations 0
time step continuity errors : sum local = 1.94997e-10, global = -5.14293e-13, cumulative = -1.25644e-07
DICPCG:  Solving for p_rgh, Initial residual = 0.000118701, Final residual = 7.83454e-09, No Iterations 180
diagonal:  Solving for rho, Initial residual = 0, Final residual = 0, No Iterations 0
time step continuity errors : sum local = 1.86828e-10, global = 3.80003e-13, cumulative = -1.25643e-07
ExecutionTime = 21.32 s  ClockTime = 22 s

Courant Number mean: 0.0841277 max: 0.435795
Time = 0.61

diagonal:  Solving for rho, Initial residual = 0, Final residual = 0, No Iterations 0
DILUPBiCGStab:  Solving for Ux, Initial residual = 0.00176609, Final residual = 1.55876e-07, No Iterations 1
DILUPBiCGStab:  Solving for Uy, Initial residual = 0.00463049, Final residual = 4.6557e-07, No Iterations 1
DILUPBiCGStab:  Solving for h, Initial residual = 0.00151103, Final residual = 9.47206e-07, No Iterations 8
DICPCG:  Solving for p_rgh, Initial residual = 0.000324813, Final residual = 2.78995e-06, No Iterations 152
diagonal:  Solving for rho, Initial residual = 0, Final residual = 0, No Iterations 0
time step continuity errors : sum local = 1.93974e-10, global = -3.59866e-13, cumulative = -1.25644e-07
DICPCG:  Solving for p_rgh, Initial residual = 0.000114115, Final residual = 8.04724e-09, No Iterations 180
diagonal:  Solving for rho, Initial residual = 0, Final residual = 0, No Iterations 0
time step continuity errors : sum local = 1.88156e-10, global = -1.25209e-13, cumulative = -1.25644e-07
ExecutionTime = 21.64 s  ClockTime = 22 s

Courant Number mean: 0.0841286 max: 0.435826
Time = 0.62

diagonal:  Solving for rho, Initial residual = 0, Final residual = 0, No Iterations 0
DILUPBiCGStab:  Solving for Ux, Initial residual = 0.00173929, Final residual = 1.52046e-07, No Iterations 1
DILUPBiCGStab:  Solving for Uy, Initial residual = 0.00458048, Final residual = 4.55288e-07, No Iterations 1
DILUPBiCGStab:  Solving for h, Initial residual = 0.00150632, Final residual = 9.43795e-07, No Iterations 8
DICPCG:  Solving for p_rgh, Initial residual = 0.000324044, Final residual = 2.74899e-06, No Iterations 152
diagonal:  Solving for rho, Initial residual = 0, Final residual = 0, No Iterations 0
time step continuity errors : sum local = 1.92361e-10, global = -7.49984e-13, cumulative = -1.25644e-07
DICPCG:  Solving for p_rgh, Initial residual = 0.000114089, Final residual = 9.94558e-09, No Iterations 179
diagonal:  Solving for rho, Initial residual = 0, Final residual = 0, No Iterations 0
time step continuity errors : sum local = 1.92683e-10, global = 3.11764e-13, cumulative = -1.25644e-07
ExecutionTime = 21.96 s  ClockTime = 22 s

Courant Number mean: 0.0841296 max: 0.435854
Time = 0.63

diagonal:  Solving for rho, Initial residual = 0, Final residual = 0, No Iterations 0
DILUPBiCGStab:  Solving for Ux, Initial residual = 0.0017133, Final residual = 1.48354e-07, No Iterations 1
DILUPBiCGStab:  Solving for Uy, Initial residual = 0.00453202, Final residual = 4.45333e-07, No Iterations 1
DILUPBiCGStab:  Solving for h, Initial residual = 0.00150169, Final residual = 9.39469e-07, No Iterations 8
DICPCG:  Solving for p_rgh, Initial residual = 0.000314635, Final residual = 2.73652e-06, No Iterations 152
diagonal:  Solving for rho, Initial residual = 0, Final residual = 0, No Iterations 0
time step continuity errors : sum local = 1.91123e-10, global = -1.6951e-13, cumulative = -1.25644e-07
DICPCG:  Solving for p_rgh, Initial residual = 0.00011202, Final residual = 8.8822e-09, No Iterations 180
diagonal:  Solving for rho, Initial residual = 0, Final residual = 0, No Iterations 0
time step continuity errors : sum local = 1.8803e-10, global = -2.70312e-15, cumulative = -1.25644e-07
ExecutionTime = 22.28 s  ClockTime = 22 s

Courant Number mean: 0.0841305 max: 0.435877
Time = 0.64

diagonal:  Solving for rho, Initial residual = 0, Final residual = 0, No Iterations 0
DILUPBiCGStab:  Solving for Ux, Initial residual = 0.00168807, Final residual = 1.44788e-07, No Iterations 1
DILUPBiCGStab:  Solving for Uy, Initial residual = 0.00448448, Final residual = 4.35703e-07, No Iterations 1
DILUPBiCGStab:  Solving for h, Initial residual = 0.00149715, Final residual = 9.36389e-07, No Iterations 8
DICPCG:  Solving for p_rgh, Initial residual = 0.000324603, Final residual = 2.90501e-06, No Iterations 152
diagonal:  Solving for rho, Initial residual = 0, Final residual = 0, No Iterations 0
time step continuity errors : sum local = 1.90584e-10, global = 2.91433e-13, cumulative = -1.25644e-07
DICPCG:  Solving for p_rgh, Initial residual = 0.000113057, Final residual = 9.41457e-09, No Iterations 180
diagonal:  Solving for rho, Initial residual = 0, Final residual = 0, No Iterations 0
time step continuity errors : sum local = 1.8771e-10, global = -3.00133e-13, cumulative = -1.25644e-07
ExecutionTime = 22.62 s  ClockTime = 23 s

Courant Number mean: 0.0841314 max: 0.435897
Time = 0.65

diagonal:  Solving for rho, Initial residual = 0, Final residual = 0, No Iterations 0
DILUPBiCGStab:  Solving for Ux, Initial residual = 0.00166355, Final residual = 1.41353e-07, No Iterations 1
DILUPBiCGStab:  Solving for Uy, Initial residual = 0.00443753, Final residual = 4.26353e-07, No Iterations 1
DILUPBiCGStab:  Solving for h, Initial residual = 0.00149271, Final residual = 9.32253e-07, No Iterations 8
DICPCG:  Solving for p_rgh, Initial residual = 0.000316146, Final residual = 2.93787e-06, No Iterations 152
diagonal:  Solving for rho, Initial residual = 0, Final residual = 0, No Iterations 0
time step continuity errors : sum local = 1.91335e-10, global = -6.05942e-13, cumulative = -1.25645e-07
DICPCG:  Solving for p_rgh, Initial residual = 0.00011169, Final residual = 9.81803e-09, No Iterations 180
diagonal:  Solving for rho, Initial residual = 0, Final residual = 0, No Iterations 0
time step continuity errors : sum local = 1.90818e-10, global = -5.10482e-13, cumulative = -1.25645e-07
ExecutionTime = 22.96 s  ClockTime = 23 s

Courant Number mean: 0.0841323 max: 0.435913
Time = 0.66

diagonal:  Solving for rho, Initial residual = 0, Final residual = 0, No Iterations 0
DILUPBiCGStab:  Solving for Ux, Initial residual = 0.00163972, Final residual = 1.38059e-07, No Iterations 1
DILUPBiCGStab:  Solving for Uy, Initial residual = 0.00439204, Final residual = 4.17271e-07, No Iterations 1
DILUPBiCGStab:  Solving for h, Initial residual = 0.00148836, Final residual = 9.29465e-07, No Iterations 8
DICPCG:  Solving for p_rgh, Initial residual = 0.000313683, Final residual = 2.86262e-06, No Iterations 153
diagonal:  Solving for rho, Initial residual = 0, Final residual = 0, No Iterations 0
time step continuity errors : sum local = 1.91281e-10, global = 1.70939e-13, cumulative = -1.25645e-07
DICPCG:  Solving for p_rgh, Initial residual = 0.000111033, Final residual = 9.33306e-09, No Iterations 181
diagonal:  Solving for rho, Initial residual = 0, Final residual = 0, No Iterations 0
time step continuity errors : sum local = 1.90782e-10, global = 3.11619e-13, cumulative = -1.25645e-07
ExecutionTime = 23.3 s  ClockTime = 23 s

Courant Number mean: 0.0841333 max: 0.435933
Time = 0.67

diagonal:  Solving for rho, Initial residual = 0, Final residual = 0, No Iterations 0
DILUPBiCGStab:  Solving for Ux, Initial residual = 0.00161654, Final residual = 1.34882e-07, No Iterations 1
DILUPBiCGStab:  Solving for Uy, Initial residual = 0.00434702, Final residual = 4.08457e-07, No Iterations 1
DILUPBiCGStab:  Solving for h, Initial residual = 0.00148407, Final residual = 9.25566e-07, No Iterations 8
DICPCG:  Solving for p_rgh, Initial residual = 0.000303138, Final residual = 3.0126e-06, No Iterations 152
diagonal:  Solving for rho, Initial residual = 0, Final residual = 0, No Iterations 0
time step continuity errors : sum local = 1.94153e-10, global = 9.02175e-14, cumulative = -1.25645e-07
DICPCG:  Solving for p_rgh, Initial residual = 0.000107741, Final residual = 9.62454e-09, No Iterations 181
diagonal:  Solving for rho, Initial residual = 0, Final residual = 0, No Iterations 0
time step continuity errors : sum local = 1.90767e-10, global = 1.68348e-13, cumulative = -1.25645e-07
ExecutionTime = 23.63 s  ClockTime = 24 s

Courant Number mean: 0.0841342 max: 0.435951
Time = 0.68

diagonal:  Solving for rho, Initial residual = 0, Final residual = 0, No Iterations 0
DILUPBiCGStab:  Solving for Ux, Initial residual = 0.00159401, Final residual = 1.31828e-07, No Iterations 1
DILUPBiCGStab:  Solving for Uy, Initial residual = 0.00430237, Final residual = 3.99877e-07, No Iterations 1
DILUPBiCGStab:  Solving for h, Initial residual = 0.00147987, Final residual = 9.23015e-07, No Iterations 8
DICPCG:  Solving for p_rgh, Initial residual = 0.000310492, Final residual = 3.05426e-06, No Iterations 153
diagonal:  Solving for rho, Initial residual = 0, Final residual = 0, No Iterations 0
time step continuity errors : sum local = 1.91822e-10, global = 5.20715e-13, cumulative = -1.25644e-07
DICPCG:  Solving for p_rgh, Initial residual = 0.000110386, Final residual = 7.79803e-09, No Iterations 182
diagonal:  Solving for rho, Initial residual = 0, Final residual = 0, No Iterations 0
time step continuity errors : sum local = 1.9425e-10, global = 6.6377e-13, cumulative = -1.25643e-07
ExecutionTime = 23.97 s  ClockTime = 24 s

Courant Number mean: 0.0841351 max: 0.435966
Time = 0.69

diagonal:  Solving for rho, Initial residual = 0, Final residual = 0, No Iterations 0
DILUPBiCGStab:  Solving for Ux, Initial residual = 0.0015721, Final residual = 1.28879e-07, No Iterations 1
DILUPBiCGStab:  Solving for Uy, Initial residual = 0.0042595, Final residual = 3.9156e-07, No Iterations 1
DILUPBiCGStab:  Solving for h, Initial residual = 0.00147575, Final residual = 9.19309e-07, No Iterations 8
DICPCG:  Solving for p_rgh, Initial residual = 0.000313688, Final residual = 2.43245e-06, No Iterations 154
diagonal:  Solving for rho, Initial residual = 0, Final residual = 0, No Iterations 0
time step continuity errors : sum local = 1.86722e-10, global = -1.72791e-13, cumulative = -1.25644e-07
DICPCG:  Solving for p_rgh, Initial residual = 0.000109277, Final residual = 7.74365e-09, No Iterations 182
diagonal:  Solving for rho, Initial residual = 0, Final residual = 0, No Iterations 0
time step continuity errors : sum local = 1.9005e-10, global = 5.81164e-13, cumulative = -1.25643e-07
ExecutionTime = 24.3 s  ClockTime = 25 s

Courant Number mean: 0.084136 max: 0.435978
Time = 0.7

diagonal:  Solving for rho, Initial residual = 0, Final residual = 0, No Iterations 0
DILUPBiCGStab:  Solving for Ux, Initial residual = 0.00155106, Final residual = 1.26024e-07, No Iterations 1
[...]
ExecutionTime = 29 s  ClockTime = 29 s

Courant Number mean: 0.0841478 max: 0.435861
Time = 0.83

diagonal:  Solving for rho, Initial residual = 0, Final residual = 0, No Iterations 0
DILUPBiCGStab:  Solving for Ux, Initial residual = 0.00132538, Final residual = 9.616e-08, No Iterations 1
DILUPBiCGStab:  Solving for Uy, Initial residual = 0.00372735, Final residual = 2.96319e-07, No Iterations 1
DILUPBiCGStab:  Solving for h, Initial residual = 0.00142496, Final residual = 8.84263e-07, No Iterations 8
DICPCG:  Solving for p_rgh, Initial residual = 0.000293655, Final residual = 2.76085e-06, No Iterations 152
diagonal:  Solving for rho, Initial residual = 0, Final residual = 0, No Iterations 0
time step continuity errors : sum local = 1.90367e-10, global = 3.28781e-13, cumulative = -1.25645e-07
DICPCG:  Solving for p_rgh, Initial residual = 0.000103537, Final residual = 9.24318e-09, No Iterations 181
diagonal:  Solving for rho, Initial residual = 0, Final residual = 0, No Iterations 0
time step continuity errors : sum local = 1.88247e-10, global = 5.08608e-13, cumulative = -1.25644e-07
ExecutionTime = 29.32 s  ClockTime = 30 s

Courant Number mean: 0.0841487 max: 0.435835
Time = 0.84

diagonal:  Solving for rho, Initial residual = 0, Final residual = 0, No Iterations 0
DILUPBiCGStab:  Solving for Ux, Initial residual = 0.0013108, Final residual = 9.43179e-08, No Iterations 1
DILUPBiCGStab:  Solving for Uy, Initial residual = 0.00369339, Final residual = 2.90759e-07, No Iterations 1
DILUPBiCGStab:  Solving for h, Initial residual = 0.00142183, Final residual = 8.83041e-07, No Iterations 8
DICPCG:  Solving for p_rgh, Initial residual = 0.000279914, Final residual = 2.61828e-06, No Iterations 152
diagonal:  Solving for rho, Initial residual = 0, Final residual = 0, No Iterations 0
time step continuity errors : sum local = 1.88131e-10, global = 2.89711e-13, cumulative = -1.25644e-07
DICPCG:  Solving for p_rgh, Initial residual = 0.000100963, Final residual = 9.94617e-09, No Iterations 180
diagonal:  Solving for rho, Initial residual = 0, Final residual = 0, No Iterations 0
time step continuity errors : sum local = 1.91915e-10, global = -1.89152e-13, cumulative = -1.25644e-07
ExecutionTime = 29.64 s  ClockTime = 30 s

Courant Number mean: 0.0841496 max: 0.435807
Time = 0.85

diagonal:  Solving for rho, Initial residual = 0, Final residual = 0, No Iterations 0
DILUPBiCGStab:  Solving for Ux, Initial residual = 0.00129649, Final residual = 9.25223e-08, No Iterations 1
DILUPBiCGStab:  Solving for Uy, Initial residual = 0.00366134, Final residual = 2.8537e-07, No Iterations 1
DILUPBiCGStab:  Solving for h, Initial residual = 0.00141872, Final residual = 8.80214e-07, No Iterations 8
DICPCG:  Solving for p_rgh, Initial residual = 0.000269002, Final residual = 2.43928e-06, No Iterations 152
diagonal:  Solving for rho, Initial residual = 0, Final residual = 0, No Iterations 0
time step continuity errors : sum local = 1.89394e-10, global = -3.48175e-13, cumulative = -1.25644e-07
DICPCG:  Solving for p_rgh, Initial residual = 9.74956e-05, Final residual = 8.74712e-09, No Iterations 181
diagonal:  Solving for rho, Initial residual = 0, Final residual = 0, No Iterations 0
time step continuity errors : sum local = 1.87872e-10, global = 2.06666e-13, cumulative = -1.25644e-07
ExecutionTime = 29.96 s  ClockTime = 30 s

Courant Number mean: 0.0841505 max: 0.435777
Time = 0.86

diagonal:  Solving for rho, Initial residual = 0, Final residual = 0, No Iterations 0
DILUPBiCGStab:  Solving for Ux, Initial residual = 0.00128243, Final residual = 9.07704e-08, No Iterations 1
DILUPBiCGStab:  Solving for Uy, Initial residual = 0.00362896, Final residual = 2.8011e-07, No Iterations 1
DILUPBiCGStab:  Solving for h, Initial residual = 0.00141571, Final residual = 8.79084e-07, No Iterations 8
DICPCG:  Solving for p_rgh, Initial residual = 0.000267336, Final residual = 2.33003e-06, No Iterations 152
diagonal:  Solving for rho, Initial residual = 0, Final residual = 0, No Iterations 0
time step continuity errors : sum local = 1.88128e-10, global = -1.67897e-13, cumulative = -1.25644e-07
DICPCG:  Solving for p_rgh, Initial residual = 9.69443e-05, Final residual = 9.85202e-09, No Iterations 180
diagonal:  Solving for rho, Initial residual = 0, Final residual = 0, No Iterations 0
time step continuity errors : sum local = 1.88943e-10, global = 4.88574e-13, cumulative = -1.25644e-07
ExecutionTime = 30.28 s  ClockTime = 30 s

Courant Number mean: 0.0841514 max: 0.435745
Time = 0.87

diagonal:  Solving for rho, Initial residual = 0, Final residual = 0, No Iterations 0
DILUPBiCGStab:  Solving for Ux, Initial residual = 0.00126864, Final residual = 8.90637e-08, No Iterations 1
DILUPBiCGStab:  Solving for Uy, Initial residual = 0.00359687, Final residual = 2.74971e-07, No Iterations 1
DILUPBiCGStab:  Solving for h, Initial residual = 0.00141273, Final residual = 8.76277e-07, No Iterations 8
DICPCG:  Solving for p_rgh, Initial residual = 0.000272413, Final residual = 2.53806e-06, No Iterations 151
diagonal:  Solving for rho, Initial residual = 0, Final residual = 0, No Iterations 0
time step continuity errors : sum local = 1.90468e-10, global = -4.49112e-13, cumulative = -1.25644e-07
DICPCG:  Solving for p_rgh, Initial residual = 9.7581e-05, Final residual = 9.32103e-09, No Iterations 180
diagonal:  Solving for rho, Initial residual = 0, Final residual = 0, No Iterations 0
time step continuity errors : sum local = 1.87866e-10, global = -4.33279e-13, cumulative = -1.25645e-07
ExecutionTime = 30.59 s  ClockTime = 31 s

Courant Number mean: 0.0841523 max: 0.435711
Time = 0.88

diagonal:  Solving for rho, Initial residual = 0, Final residual = 0, No Iterations 0
DILUPBiCGStab:  Solving for Ux, Initial residual = 0.00125514, Final residual = 8.74017e-08, No Iterations 1
DILUPBiCGStab:  Solving for Uy, Initial residual = 0.00356612, Final residual = 2.69959e-07, No Iterations 1
DILUPBiCGStab:  Solving for h, Initial residual = 0.00140981, Final residual = 8.75205e-07, No Iterations 8
DICPCG:  Solving for p_rgh, Initial residual = 0.000272223, Final residual = 2.42646e-06, No Iterations 151
diagonal:  Solving for rho, Initial residual = 0, Final residual = 0, No Iterations 0
time step continuity errors : sum local = 1.88873e-10, global = -1.07775e-12, cumulative = -1.25646e-07
DICPCG:  Solving for p_rgh, Initial residual = 9.79223e-05, Final residual = 9.47253e-09, No Iterations 180
diagonal:  Solving for rho, Initial residual = 0, Final residual = 0, No Iterations 0
time step continuity errors : sum local = 1.9034e-10, global = -4.67913e-13, cumulative = -1.25646e-07
ExecutionTime = 30.91 s  ClockTime = 31 s

Courant Number mean: 0.0841532 max: 0.435675
Time = 0.89

diagonal:  Solving for rho, Initial residual = 0, Final residual = 0, No Iterations 0
DILUPBiCGStab:  Solving for Ux, Initial residual = 0.00124192, Final residual = 8.57859e-08, No Iterations 1
DILUPBiCGStab:  Solving for Uy, Initial residual = 0.00353541, Final residual = 2.6507e-07, No Iterations 1
DILUPBiCGStab:  Solving for h, Initial residual = 0.00140696, Final residual = 8.7248e-07, No Iterations 8
DICPCG:  Solving for p_rgh, Initial residual = 0.00026771, Final residual = 2.63607e-06, No Iterations 150
diagonal:  Solving for rho, Initial residual = 0, Final residual = 0, No Iterations 0
time step continuity errors : sum local = 1.89553e-10, global = -1.20651e-12, cumulative = -1.25648e-07
DICPCG:  Solving for p_rgh, Initial residual = 9.69398e-05, Final residual = 9.61913e-09, No Iterations 180
diagonal:  Solving for rho, Initial residual = 0, Final residual = 0, No Iterations 0
time step continuity errors : sum local = 1.88715e-10, global = -3.44977e-13, cumulative = -1.25648e-07
ExecutionTime = 31.23 s  ClockTime = 31 s

Courant Number mean: 0.0841541 max: 0.435637
Time = 0.9

diagonal:  Solving for rho, Initial residual = 0, Final residual = 0, No Iterations 0
DILUPBiCGStab:  Solving for Ux, Initial residual = 0.00122909, Final residual = 8.42178e-08, No Iterations 1
DILUPBiCGStab:  Solving for Uy, Initial residual = 0.0035049, Final residual = 2.60309e-07, No Iterations 1
DILUPBiCGStab:  Solving for h, Initial residual = 0.00140415, Final residual = 8.71414e-07, No Iterations 8
DICPCG:  Solving for p_rgh, Initial residual = 0.00026684, Final residual = 2.62536e-06, No Iterations 150
diagonal:  Solving for rho, Initial residual = 0, Final residual = 0, No Iterations 0
time step continuity errors : sum local = 1.86762e-10, global = -4.83327e-13, cumulative = -1.25648e-07
DICPCG:  Solving for p_rgh, Initial residual = 9.57016e-05, Final residual = 9.72634e-09, No Iterations 180
diagonal:  Solving for rho, Initial residual = 0, Final residual = 0, No Iterations 0
time step continuity errors : sum local = 1.86548e-10, global = -2.41038e-13, cumulative = -1.25649e-07
ExecutionTime = 31.55 s  ClockTime = 32 s

Courant Number mean: 0.084155 max: 0.435598
Time = 0.91

diagonal:  Solving for rho, Initial residual = 0, Final residual = 0, No Iterations 0
DILUPBiCGStab:  Solving for Ux, Initial residual = 0.00121667, Final residual = 8.26948e-08, No Iterations 1
DILUPBiCGStab:  Solving for Uy, Initial residual = 0.00347547, Final residual = 2.55659e-07, No Iterations 1
DILUPBiCGStab:  Solving for h, Initial residual = 0.00140142, Final residual = 8.68802e-07, No Iterations 8
DICPCG:  Solving for p_rgh, Initial residual = 0.000283234, Final residual = 2.60211e-06, No Iterations 150
diagonal:  Solving for rho, Initial residual = 0, Final residual = 0, No Iterations 0
time step continuity errors : sum local = 1.85799e-10, global = -3.28312e-13, cumulative = -1.25649e-07
DICPCG:  Solving for p_rgh, Initial residual = 0.000100238, Final residual = 9.56707e-09, No Iterations 180
diagonal:  Solving for rho, Initial residual = 0, Final residual = 0, No Iterations 0
time step continuity errors : sum local = 1.90494e-10, global = 7.19077e-13, cumulative = -1.25648e-07
ExecutionTime = 31.86 s  ClockTime = 32 s

Courant Number mean: 0.0841559 max: 0.435557
Time = 0.92

diagonal:  Solving for rho, Initial residual = 0, Final residual = 0, No Iterations 0
DILUPBiCGStab:  Solving for Ux, Initial residual = 0.00120452, Final residual = 8.12117e-08, No Iterations 1
DILUPBiCGStab:  Solving for Uy, Initial residual = 0.00344648, Final residual = 2.51125e-07, No Iterations 1
DILUPBiCGStab:  Solving for h, Initial residual = 0.00139872, Final residual = 8.67777e-07, No Iterations 8
DICPCG:  Solving for p_rgh, Initial residual = 0.000284649, Final residual = 2.28433e-06, No Iterations 150
diagonal:  Solving for rho, Initial residual = 0, Final residual = 0, No Iterations 0
time step continuity errors : sum local = 1.8288e-10, global = -3.58332e-13, cumulative = -1.25649e-07
DICPCG:  Solving for p_rgh, Initial residual = 0.000101534, Final residual = 9.95793e-09, No Iterations 180
diagonal:  Solving for rho, Initial residual = 0, Final residual = 0, No Iterations 0
time step continuity errors : sum local = 1.87652e-10, global = 3.48577e-13, cumulative = -1.25648e-07
ExecutionTime = 32.18 s  ClockTime = 32 s

Courant Number mean: 0.0841567 max: 0.435515
Time = 0.93

diagonal:  Solving for rho, Initial residual = 0, Final residual = 0, No Iterations 0
DILUPBiCGStab:  Solving for Ux, Initial residual = 0.00119265, Final residual = 7.97666e-08, No Iterations 1
DILUPBiCGStab:  Solving for Uy, Initial residual = 0.00341713, Final residual = 2.46682e-07, No Iterations 1
DILUPBiCGStab:  Solving for h, Initial residual = 0.00139609, Final residual = 8.65203e-07, No Iterations 8
DICPCG:  Solving for p_rgh, Initial residual = 0.000269248, Final residual = 2.21922e-06, No Iterations 150
diagonal:  Solving for rho, Initial residual = 0, Final residual = 0, No Iterations 0
time step continuity errors : sum local = 1.82648e-10, global = -5.44687e-13, cumulative = -1.25649e-07
DICPCG:  Solving for p_rgh, Initial residual = 9.57533e-05, Final residual = 9.808e-09, No Iterations 180
diagonal:  Solving for rho, Initial residual = 0, Final residual = 0, No Iterations 0
time step continuity errors : sum local = 1.91094e-10, global = -1.34765e-13, cumulative = -1.25649e-07
ExecutionTime = 32.5 s  ClockTime = 33 s

Courant Number mean: 0.0841576 max: 0.435471
Time = 0.94

diagonal:  Solving for rho, Initial residual = 0, Final residual = 0, No Iterations 0
DILUPBiCGStab:  Solving for Ux, Initial residual = 0.00118104, Final residual = 7.83569e-08, No Iterations 1
DILUPBiCGStab:  Solving for Uy, Initial residual = 0.00338899, Final residual = 2.4237e-07, No Iterations 1
DILUPBiCGStab:  Solving for h, Initial residual = 0.00139349, Final residual = 8.64255e-07, No Iterations 8
DICPCG:  Solving for p_rgh, Initial residual = 0.00026255, Final residual = 2.55503e-06, No Iterations 149
diagonal:  Solving for rho, Initial residual = 0, Final residual = 0, No Iterations 0
time step continuity errors : sum local = 1.86171e-10, global = -3.51929e-13, cumulative = -1.25649e-07
DICPCG:  Solving for p_rgh, Initial residual = 9.47664e-05, Final residual = 9.99369e-09, No Iterations 180
diagonal:  Solving for rho, Initial residual = 0, Final residual = 0, No Iterations 0
time step continuity errors : sum local = 1.87795e-10, global = 2.47822e-13, cumulative = -1.25649e-07
ExecutionTime = 32.81 s  ClockTime = 33 s

Courant Number mean: 0.0841585 max: 0.435426
Time = 0.95

diagonal:  Solving for rho, Initial residual = 0, Final residual = 0, No Iterations 0
DILUPBiCGStab:  Solving for Ux, Initial residual = 0.00116967, Final residual = 7.6983e-08, No Iterations 1
DILUPBiCGStab:  Solving for Uy, Initial residual = 0.00336138, Final residual = 2.38152e-07, No Iterations 1
DILUPBiCGStab:  Solving for h, Initial residual = 0.00139094, Final residual = 8.6174e-07, No Iterations 8
DICPCG:  Solving for p_rgh, Initial residual = 0.00027197, Final residual = 2.5314e-06, No Iterations 149
diagonal:  Solving for rho, Initial residual = 0, Final residual = 0, No Iterations 0
time step continuity errors : sum local = 1.85913e-10, global = 3.9895e-14, cumulative = -1.25649e-07
DICPCG:  Solving for p_rgh, Initial residual = 9.78192e-05, Final residual = 8.24722e-09, No Iterations 181
diagonal:  Solving for rho, Initial residual = 0, Final residual = 0, No Iterations 0
time step continuity errors : sum local = 1.85912e-10, global = -7.712e-13, cumulative = -1.2565e-07
ExecutionTime = 33.13 s  ClockTime = 33 s

Courant Number mean: 0.0841594 max: 0.435379
Time = 0.96

diagonal:  Solving for rho, Initial residual = 0, Final residual = 0, No Iterations 0
DILUPBiCGStab:  Solving for Ux, Initial residual = 0.00115853, Final residual = 7.56445e-08, No Iterations 1
DILUPBiCGStab:  Solving for Uy, Initial residual = 0.00333363, Final residual = 2.34035e-07, No Iterations 1
DILUPBiCGStab:  Solving for h, Initial residual = 0.00138842, Final residual = 8.60762e-07, No Iterations 8
DICPCG:  Solving for p_rgh, Initial residual = 0.000280575, Final residual = 2.28292e-06, No Iterations 149
diagonal:  Solving for rho, Initial residual = 0, Final residual = 0, No Iterations 0
time step continuity errors : sum local = 1.88701e-10, global = -1.63002e-13, cumulative = -1.2565e-07
DICPCG:  Solving for p_rgh, Initial residual = 9.69479e-05, Final residual = 9.37354e-09, No Iterations 180
diagonal:  Solving for rho, Initial residual = 0, Final residual = 0, No Iterations 0
time step continuity errors : sum local = 1.89395e-10, global = -2.29336e-13, cumulative = -1.2565e-07
ExecutionTime = 33.45 s  ClockTime = 34 s

Courant Number mean: 0.0841602 max: 0.435331
Time = 0.97

diagonal:  Solving for rho, Initial residual = 0, Final residual = 0, No Iterations 0
DILUPBiCGStab:  Solving for Ux, Initial residual = 0.0011476, Final residual = 7.43387e-08, No Iterations 1
DILUPBiCGStab:  Solving for Uy, Initial residual = 0.00330642, Final residual = 2.3001e-07, No Iterations 1
DILUPBiCGStab:  Solving for h, Initial residual = 0.00138595, Final residual = 8.58275e-07, No Iterations 8
DICPCG:  Solving for p_rgh, Initial residual = 0.000283982, Final residual = 2.36563e-06, No Iterations 149
diagonal:  Solving for rho, Initial residual = 0, Final residual = 0, No Iterations 0
time step continuity errors : sum local = 1.8584e-10, global = -1.62974e-13, cumulative = -1.2565e-07
DICPCG:  Solving for p_rgh, Initial residual = 9.94918e-05, Final residual = 9.70589e-09, No Iterations 180
diagonal:  Solving for rho, Initial residual = 0, Final residual = 0, No Iterations 0
time step continuity errors : sum local = 1.86872e-10, global = -4.16146e-13, cumulative = -1.25651e-07
ExecutionTime = 33.76 s  ClockTime = 34 s

Courant Number mean: 0.0841611 max: 0.435282
Time = 0.98

diagonal:  Solving for rho, Initial residual = 0, Final residual = 0, No Iterations 0
DILUPBiCGStab:  Solving for Ux, Initial residual = 0.00113689, Final residual = 7.30721e-08, No Iterations 1
DILUPBiCGStab:  Solving for Uy, Initial residual = 0.00328039, Final residual = 2.26088e-07, No Iterations 1
DILUPBiCGStab:  Solving for h, Initial residual = 0.00138353, Final residual = 8.57307e-07, No Iterations 8
DICPCG:  Solving for p_rgh, Initial residual = 0.000261367, Final residual = 2.28456e-06, No Iterations 149
diagonal:  Solving for rho, Initial residual = 0, Final residual = 0, No Iterations 0
time step continuity errors : sum local = 1.82798e-10, global = -4.36542e-13, cumulative = -1.25651e-07
DICPCG:  Solving for p_rgh, Initial residual = 9.38747e-05, Final residual = 9.63019e-09, No Iterations 180
diagonal:  Solving for rho, Initial residual = 0, Final residual = 0, No Iterations 0
time step continuity errors : sum local = 1.89477e-10, global = 8.74235e-14, cumulative = -1.25651e-07
ExecutionTime = 34.09 s  ClockTime = 34 s

Courant Number mean: 0.084162 max: 0.435231
Time = 0.99

diagonal:  Solving for rho, Initial residual = 0, Final residual = 0, No Iterations 0
DILUPBiCGStab:  Solving for Ux, Initial residual = 0.00112638, Final residual = 7.18516e-08, No Iterations 1
DILUPBiCGStab:  Solving for Uy, Initial residual = 0.003254, Final residual = 2.22243e-07, No Iterations 1
DILUPBiCGStab:  Solving for h, Initial residual = 0.00138114, Final residual = 8.54892e-07, No Iterations 8
DICPCG:  Solving for p_rgh, Initial residual = 0.000257524, Final residual = 2.34055e-06, No Iterations 149
diagonal:  Solving for rho, Initial residual = 0, Final residual = 0, No Iterations 0
time step continuity errors : sum local = 1.83241e-10, global = -4.77e-13, cumulative = -1.25652e-07
DICPCG:  Solving for p_rgh, Initial residual = 9.2384e-05, Final residual = 9.6895e-09, No Iterations 180
diagonal:  Solving for rho, Initial residual = 0, Final residual = 0, No Iterations 0
time step continuity errors : sum local = 1.85004e-10, global = -1.30804e-13, cumulative = -1.25652e-07
ExecutionTime = 34.42 s  ClockTime = 35 s

Courant Number mean: 0.0841629 max: 0.435179
Time = 1

diagonal:  Solving for rho, Initial residual = 0, Final residual = 0, No Iterations 0
DILUPBiCGStab:  Solving for Ux, Initial residual = 0.00111607, Final residual = 7.06594e-08, No Iterations 1
DILUPBiCGStab:  Solving for Uy, Initial residual = 0.00322791, Final residual = 2.18489e-07, No Iterations 1
DILUPBiCGStab:  Solving for h, Initial residual = 0.00137879, Final residual = 8.53904e-07, No Iterations 8
DICPCG:  Solving for p_rgh, Initial residual = 0.000270725, Final residual = 2.39637e-06, No Iterations 149
diagonal:  Solving for rho, Initial residual = 0, Final residual = 0, No Iterations 0
time step continuity errors : sum local = 1.8326e-10, global = -5.74506e-13, cumulative = -1.25652e-07
DICPCG:  Solving for p_rgh, Initial residual = 9.58223e-05, Final residual = 9.80631e-09, No Iterations 180
diagonal:  Solving for rho, Initial residual = 0, Final residual = 0, No Iterations 0
time step continuity errors : sum local = 1.90618e-10, global = -2.55142e-13, cumulative = -1.25652e-07
ExecutionTime = 35.1 s  ClockTime = 35 s

End

