/*---------------------------------------------------------------------------*\
  =========                 |
  \\      /  F ield         | OpenFOAM: The Open Source CFD Toolbox
   \\    /   O peration     | Website:  https://openfoam.org
    \\  /    A nd           | Version:  7
     \\/     M anipulation  |
\*---------------------------------------------------------------------------*/
Build  : 7-49b2b3b8b082
Exec   : buoyantPimpleFoam
Date   : Mar 24 2023
Time   : 16:05:34
Host   : "c402-101.stampede2.tacc.utexas.edu"
PID    : 135599
I/O    : uncollated
Case   : /home1/08376/lew2547/seniordesign/CooliestModel/src/CFD/heatedplate1/fluid-openfoam
nProcs : 1
sigFpe : Enabling floating point exception trapping (FOAM_SIGFPE).
fileModificationChecking : Monitoring run-time modified files using timeStampMaster (fileModificationSkew 10)
allowSystemOperations : Allowing user-supplied system call operations

// * * * * * * * * * * * * * * * * * * * * * * * * * * * * * * * * * * * * * //
Create time

Create mesh for time = 0


PIMPLE: No convergence criteria found


PIMPLE: Operating solver in transient mode with 1 outer corrector
PIMPLE: Operating solver in PISO mode


Reading thermophysical properties

Selecting thermodynamics package 
{
    type            heRhoThermo;
    mixture         pureMixture;
    transport       const;
    thermo          hConst;
    equationOfState perfectGas;
    specie          specie;
    energy          sensibleEnthalpy;
}

Reading field U

Reading/calculating face flux field phi

Creating turbulence model

Selecting turbulence model type laminar
Selecting laminar stress model Stokes

Reading g

Reading hRef
Calculating field g.h

Reading field p_rgh

Creating field dpdt

Creating field kinetic energy K

No MRF models present

Radiation model not active: radiationProperties not found
Selecting radiationModel none
No finite volume options present
Courant Number mean: 0.0837143 max: 0.403668

Starting time loop

--> FOAM Warning : 
    From function void *Foam::dlOpen(const Foam::fileName &, bool)
    in file POSIX.C at line 1251
    dlopen error : libpreciceAdapterFunctionObject.so: cannot open shared object file: No such file or directory
--> FOAM Warning : 
    From function bool Foam::dlLibraryTable::open(const Foam::fileName &, bool)
    in file db/dynamicLibrary/dlLibraryTable/dlLibraryTable.C at line 105
    could not load "libpreciceAdapterFunctionObject.so"
--> FOAM Warning : 
    From function bool Foam::dlLibraryTable::open(const Foam::dictionary &, const Foam::word &, const TablePtr &) [with TablePtr = Foam::HashTable<Foam::autoPtr<Foam::functionObject> (*)(const Foam::word &, const Foam::Time &, const Foam::dictionary &), Foam::word, Foam::string::hash> *]
    in file lnInclude/dlLibraryTableTemplates.C at line 62
    Could not open library "libpreciceAdapterFunctionObject.so"

--> FOAM Warning : 
    From function bool Foam::functionObjectList::read()
    in file db/functionObjects/functionObjectList/functionObjectList.C at line 746
    Caught FatalError 
--> FOAM FATAL ERROR: 
Unknown function type preciceAdapterFunctionObject

Valid functions are : 

6
(
patchProbes
probes
psiReactionThermoMoleFractions
rhoReactionThermoMoleFractions
sets
surfaces
)



    From function static Foam::autoPtr<Foam::functionObject> Foam::functionObject::New(const Foam::word &, const Foam::Time &, const Foam::dictionary &)
    in file db/functionObjects/functionObject/functionObject.C at line 100.

Courant Number mean: 0.0837143 max: 0.403668
Time = 0.01

diagonal:  Solving for rho, Initial residual = 0, Final residual = 0, No Iterations 0
DILUPBiCGStab:  Solving for Ux, Initial residual = 1, Final residual = 1.17224e-07, No Iterations 2
DILUPBiCGStab:  Solving for Uy, Initial residual = 1, Final residual = 9.27306e-07, No Iterations 2
DILUPBiCGStab:  Solving for h, Initial residual = 1, Final residual = 9.39935e-07, No Iterations 8
DICPCG:  Solving for p_rgh, Initial residual = 0.82722, Final residual = 0.00774627, No Iterations 87
diagonal:  Solving for rho, Initial residual = 0, Final residual = 0, No Iterations 0
time step continuity errors : sum local = 6.91458e-05, global = 8.27352e-07, cumulative = 8.27352e-07
DICPCG:  Solving for p_rgh, Initial residual = 0.308926, Final residual = 9.2001e-09, No Iterations 215
diagonal:  Solving for rho, Initial residual = 0, Final residual = 0, No Iterations 0
time step continuity errors : sum local = 7.5946e-10, global = -6.16663e-10, cumulative = 8.26735e-07
ExecutionTime = 0.89 s  ClockTime = 2 s

Courant Number mean: 0.0853588 max: 0.421012
Time = 0.02

diagonal:  Solving for rho, Initial residual = 0, Final residual = 0, No Iterations 0
DILUPBiCGStab:  Solving for Ux, Initial residual = 0.358119, Final residual = 1.47642e-07, No Iterations 2
DILUPBiCGStab:  Solving for Uy, Initial residual = 0.168914, Final residual = 8.5503e-07, No Iterations 2
DILUPBiCGStab:  Solving for h, Initial residual = 0.196285, Final residual = 6.48504e-07, No Iterations 10
DICPCG:  Solving for p_rgh, Initial residual = 0.0385282, Final residual = 0.00034312, No Iterations 145
diagonal:  Solving for rho, Initial residual = 0, Final residual = 0, No Iterations 0
time step continuity errors : sum local = 9.38408e-07, global = 1.0468e-08, cumulative = 8.37203e-07
DICPCG:  Solving for p_rgh, Initial residual = 0.0343514, Final residual = 8.56979e-09, No Iterations 204
diagonal:  Solving for rho, Initial residual = 0, Final residual = 0, No Iterations 0
time step continuity errors : sum local = 3.41469e-10, global = -2.18916e-10, cumulative = 8.36984e-07
ExecutionTime = 1.23 s  ClockTime = 2 s

Courant Number mean: 0.0851817 max: 0.421455
Time = 0.03

diagonal:  Solving for rho, Initial residual = 0, Final residual = 0, No Iterations 0
DILUPBiCGStab:  Solving for Ux, Initial residual = 0.128018, Final residual = 1.35775e-07, No Iterations 2
DILUPBiCGStab:  Solving for Uy, Initial residual = 0.0977262, Final residual = 3.62353e-07, No Iterations 2
DILUPBiCGStab:  Solving for h, Initial residual = 0.128144, Final residual = 8.61127e-07, No Iterations 10
DICPCG:  Solving for p_rgh, Initial residual = 0.0389764, Final residual = 0.000355686, No Iterations 148
diagonal:  Solving for rho, Initial residual = 0, Final residual = 0, No Iterations 0
time step continuity errors : sum local = 1.94667e-07, global = 4.25168e-10, cumulative = 8.3741e-07
DICPCG:  Solving for p_rgh, Initial residual = 0.00222135, Final residual = 9.54124e-09, No Iterations 197
diagonal:  Solving for rho, Initial residual = 0, Final residual = 0, No Iterations 0
time step continuity errors : sum local = 2.16932e-10, global = -4.28818e-11, cumulative = 8.37367e-07
ExecutionTime = 1.56 s  ClockTime = 2 s

Courant Number mean: 0.0843693 max: 0.420255
Time = 0.04

diagonal:  Solving for rho, Initial residual = 0, Final residual = 0, No Iterations 0
DILUPBiCGStab:  Solving for Ux, Initial residual = 0.366958, Final residual = 2.92953e-07, No Iterations 2
DILUPBiCGStab:  Solving for Uy, Initial residual = 0.00970224, Final residual = 1.35502e-07, No Iterations 2
DILUPBiCGStab:  Solving for h, Initial residual = 0.0831282, Final residual = 7.66667e-07, No Iterations 9
DICPCG:  Solving for p_rgh, Initial residual = 0.00642404, Final residual = 6.11384e-05, No Iterations 140
diagonal:  Solving for rho, Initial residual = 0, Final residual = 0, No Iterations 0
time step continuity errors : sum local = 7.68593e-08, global = 5.95959e-10, cumulative = 8.37963e-07
DICPCG:  Solving for p_rgh, Initial residual = 0.00186829, Final residual = 9.07476e-09, No Iterations 197
diagonal:  Solving for rho, Initial residual = 0, Final residual = 0, No Iterations 0
time step continuity errors : sum local = 2.24153e-10, global = 4.79737e-11, cumulative = 8.38011e-07
ExecutionTime = 1.88 s  ClockTime = 3 s

Courant Number mean: 0.0839707 max: 0.419995
Time = 0.05

diagonal:  Solving for rho, Initial residual = 0, Final residual = 0, No Iterations 0
DILUPBiCGStab:  Solving for Ux, Initial residual = 0.135139, Final residual = 1.61567e-07, No Iterations 2
DILUPBiCGStab:  Solving for Uy, Initial residual = 0.00742612, Final residual = 1.00462e-07, No Iterations 2
DILUPBiCGStab:  Solving for h, Initial residual = 0.0665084, Final residual = 8.03211e-07, No Iterations 8
DICPCG:  Solving for p_rgh, Initial residual = 0.0107732, Final residual = 9.03517e-05, No Iterations 147
diagonal:  Solving for rho, Initial residual = 0, Final residual = 0, No Iterations 0
time step continuity errors : sum local = 4.85633e-08, global = 2.93119e-10, cumulative = 8.38304e-07
DICPCG:  Solving for p_rgh, Initial residual = 0.00464988, Final residual = 9.58136e-09, No Iterations 202
diagonal:  Solving for rho, Initial residual = 0, Final residual = 0, No Iterations 0
time step continuity errors : sum local = 2.18408e-10, global = 4.26654e-11, cumulative = 8.38346e-07
ExecutionTime = 2.21 s  ClockTime = 3 s

Courant Number mean: 0.0840136 max: 0.420871
Time = 0.06

diagonal:  Solving for rho, Initial residual = 0, Final residual = 0, No Iterations 0
DILUPBiCGStab:  Solving for Ux, Initial residual = 0.0329166, Final residual = 7.45866e-08, No Iterations 2
DILUPBiCGStab:  Solving for Uy, Initial residual = 0.00686695, Final residual = 8.47673e-08, No Iterations 2
DILUPBiCGStab:  Solving for h, Initial residual = 0.0546469, Final residual = 7.33596e-07, No Iterations 8
DICPCG:  Solving for p_rgh, Initial residual = 0.0106177, Final residual = 9.3037e-05, No Iterations 147
diagonal:  Solving for rho, Initial residual = 0, Final residual = 0, No Iterations 0
time step continuity errors : sum local = 1.30994e-08, global = 6.28906e-11, cumulative = 8.38409e-07
DICPCG:  Solving for p_rgh, Initial residual = 0.000705609, Final residual = 8.25049e-09, No Iterations 193
diagonal:  Solving for rho, Initial residual = 0, Final residual = 0, No Iterations 0
time step continuity errors : sum local = 2.09199e-10, global = 1.10869e-11, cumulative = 8.3842e-07
ExecutionTime = 2.54 s  ClockTime = 3 s

Courant Number mean: 0.0841675 max: 0.421999
Time = 0.07

diagonal:  Solving for rho, Initial residual = 0, Final residual = 0, No Iterations 0
DILUPBiCGStab:  Solving for Ux, Initial residual = 0.0506963, Final residual = 6.77202e-08, No Iterations 2
DILUPBiCGStab:  Solving for Uy, Initial residual = 0.00648092, Final residual = 7.35529e-08, No Iterations 2
DILUPBiCGStab:  Solving for h, Initial residual = 0.0453263, Final residual = 8.10768e-07, No Iterations 7
DICPCG:  Solving for p_rgh, Initial residual = 0.00375197, Final residual = 3.63281e-05, No Iterations 147
diagonal:  Solving for rho, Initial residual = 0, Final residual = 0, No Iterations 0
time step continuity errors : sum local = 1.07944e-08, global = -1.14546e-10, cumulative = 8.38306e-07
DICPCG:  Solving for p_rgh, Initial residual = 0.00114373, Final residual = 9.3361e-09, No Iterations 190
diagonal:  Solving for rho, Initial residual = 0, Final residual = 0, No Iterations 0
time step continuity errors : sum local = 2.05639e-10, global = -9.34557e-12, cumulative = 8.38296e-07
ExecutionTime = 2.86 s  ClockTime = 4 s

Courant Number mean: 0.0842434 max: 0.422873
Time = 0.08

diagonal:  Solving for rho, Initial residual = 0, Final residual = 0, No Iterations 0
DILUPBiCGStab:  Solving for Ux, Initial residual = 0.0293882, Final residual = 5.5135e-08, No Iterations 2
DILUPBiCGStab:  Solving for Uy, Initial residual = 0.00626005, Final residual = 6.58564e-08, No Iterations 2
DILUPBiCGStab:  Solving for h, Initial residual = 0.0395278, Final residual = 7.92575e-07, No Iterations 6
DICPCG:  Solving for p_rgh, Initial residual = 0.00649012, Final residual = 6.0164e-05, No Iterations 148
diagonal:  Solving for rho, Initial residual = 0, Final residual = 0, No Iterations 0
time step continuity errors : sum local = 1.01429e-08, global = -9.57698e-11, cumulative = 8.38201e-07
DICPCG:  Solving for p_rgh, Initial residual = 0.00577784, Final residual = 9.28813e-09, No Iterations 199
diagonal:  Solving for rho, Initial residual = 0, Final residual = 0, No Iterations 0
time step continuity errors : sum local = 2.04191e-10, global = -8.52672e-12, cumulative = 8.38192e-07
ExecutionTime = 3.18 s  ClockTime = 4 s

Courant Number mean: 0.0842373 max: 0.423492
Time = 0.09

diagonal:  Solving for rho, Initial residual = 0, Final residual = 0, No Iterations 0
DILUPBiCGStab:  Solving for Ux, Initial residual = 0.010788, Final residual = 4.02187e-08, No Iterations 2
DILUPBiCGStab:  Solving for Uy, Initial residual = 0.00614489, Final residual = 6.02498e-08, No Iterations 2
DILUPBiCGStab:  Solving for h, Initial residual = 0.0352938, Final residual = 7.58622e-07, No Iterations 6
DICPCG:  Solving for p_rgh, Initial residual = 0.00995928, Final residual = 9.83362e-05, No Iterations 147
diagonal:  Solving for rho, Initial residual = 0, Final residual = 0, No Iterations 0
time step continuity errors : sum local = 3.66807e-09, global = -4.26721e-11, cumulative = 8.3815e-07
DICPCG:  Solving for p_rgh, Initial residual = 0.00597729, Final residual = 9.79355e-09, No Iterations 203
diagonal:  Solving for rho, Initial residual = 0, Final residual = 0, No Iterations 0
time step continuity errors : sum local = 2.03924e-10, global = -3.52229e-12, cumulative = 8.38146e-07
ExecutionTime = 3.52 s  ClockTime = 4 s

Courant Number mean: 0.0842079 max: 0.424018
Time = 0.1

diagonal:  Solving for rho, Initial residual = 0, Final residual = 0, No Iterations 0
DILUPBiCGStab:  Solving for Ux, Initial residual = 0.00736437, Final residual = 3.01792e-08, No Iterations 2
DILUPBiCGStab:  Solving for Uy, Initial residual = 0.00608585, Final residual = 5.60325e-08, No Iterations 2
DILUPBiCGStab:  Solving for h, Initial residual = 0.0318702, Final residual = 9.31873e-07, No Iterations 4
DICPCG:  Solving for p_rgh, Initial residual = 0.0329392, Final residual = 0.00032517, No Iterations 147
diagonal:  Solving for rho, Initial residual = 0, Final residual = 0, No Iterations 0
time step continuity errors : sum local = 2.51639e-09, global = 9.13398e-12, cumulative = 8.38155e-07
DICPCG:  Solving for p_rgh, Initial residual = 0.0022798, Final residual = 9.13553e-09, No Iterations 199
diagonal:  Solving for rho, Initial residual = 0, Final residual = 0, No Iterations 0
time step continuity errors : sum local = 2.00159e-10, global = 8.52084e-13, cumulative = 8.38156e-07
ExecutionTime = 3.84 s  ClockTime = 5 s

Courant Number mean: 0.0841916 max: 0.424552
Time = 0.11

diagonal:  Solving for rho, Initial residual = 0, Final residual = 0, No Iterations 0
DILUPBiCGStab:  Solving for Ux, Initial residual = 0.00679895, Final residual = 2.80426e-08, No Iterations 2
DILUPBiCGStab:  Solving for Uy, Initial residual = 0.00606178, Final residual = 5.27184e-08, No Iterations 2
DILUPBiCGStab:  Solving for h, Initial residual = 0.0291631, Final residual = 9.33901e-07, No Iterations 4
DICPCG:  Solving for p_rgh, Initial residual = 0.0161007, Final residual = 0.000137086, No Iterations 148
diagonal:  Solving for rho, Initial residual = 0, Final residual = 0, No Iterations 0
time step continuity errors : sum local = 2.26699e-09, global = -4.68392e-13, cumulative = 8.38156e-07
DICPCG:  Solving for p_rgh, Initial residual = 0.000975173, Final residual = 8.94258e-09, No Iterations 195
diagonal:  Solving for rho, Initial residual = 0, Final residual = 0, No Iterations 0
time step continuity errors : sum local = 2.0384e-10, global = 5.33494e-13, cumulative = 8.38156e-07
ExecutionTime = 4.17 s  ClockTime = 5 s

Courant Number mean: 0.084191 max: 0.425103
Time = 0.12

diagonal:  Solving for rho, Initial residual = 0, Final residual = 0, No Iterations 0
DILUPBiCGStab:  Solving for Ux, Initial residual = 0.00864669, Final residual = 3.12699e-08, No Iterations 2
DILUPBiCGStab:  Solving for Uy, Initial residual = 0.00605955, Final residual = 5.00093e-08, No Iterations 2
DILUPBiCGStab:  Solving for h, Initial residual = 0.0269262, Final residual = 9.11286e-07, No Iterations 4
DICPCG:  Solving for p_rgh, Initial residual = 0.00374076, Final residual = 3.04747e-05, No Iterations 148
diagonal:  Solving for rho, Initial residual = 0, Final residual = 0, No Iterations 0
time step continuity errors : sum local = 1.20462e-09, global = -2.16839e-11, cumulative = 8.38134e-07
DICPCG:  Solving for p_rgh, Initial residual = 0.00047674, Final residual = 8.21344e-09, No Iterations 185
diagonal:  Solving for rho, Initial residual = 0, Final residual = 0, No Iterations 0
time step continuity errors : sum local = 1.95904e-10, global = 1.49883e-13, cumulative = 8.38135e-07
ExecutionTime = 4.48 s  ClockTime = 5 s

Courant Number mean: 0.0841956 max: 0.425644
Time = 0.13

diagonal:  Solving for rho, Initial residual = 0, Final residual = 0, No Iterations 0
DILUPBiCGStab:  Solving for Ux, Initial residual = 0.00875506, Final residual = 2.97691e-08, No Iterations 2
DILUPBiCGStab:  Solving for Uy, Initial residual = 0.00607206, Final residual = 4.77262e-08, No Iterations 2
DILUPBiCGStab:  Solving for h, Initial residual = 0.0250038, Final residual = 6.6266e-07, No Iterations 4
DICPCG:  Solving for p_rgh, Initial residual = 0.00233543, Final residual = 2.24827e-05, No Iterations 139
diagonal:  Solving for rho, Initial residual = 0, Final residual = 0, No Iterations 0
time step continuity errors : sum local = 1.03553e-09, global = -6.41708e-12, cumulative = 8.38128e-07
DICPCG:  Solving for p_rgh, Initial residual = 0.000451978, Final residual = 8.65342e-09, No Iterations 191
diagonal:  Solving for rho, Initial residual = 0, Final residual = 0, No Iterations 0
time step continuity errors : sum local = 1.97931e-10, global = -7.28046e-13, cumulative = 8.38127e-07
ExecutionTime = 4.8 s  ClockTime = 6 s

Courant Number mean: 0.0841983 max: 0.426158
Time = 0.14

diagonal:  Solving for rho, Initial residual = 0, Final residual = 0, No Iterations 0
DILUPBiCGStab:  Solving for Ux, Initial residual = 0.00780676, Final residual = 2.70524e-08, No Iterations 2
DILUPBiCGStab:  Solving for Uy, Initial residual = 0.00609925, Final residual = 4.57464e-08, No Iterations 2
DILUPBiCGStab:  Solving for h, Initial residual = 0.0233768, Final residual = 7.99748e-07, No Iterations 4
DICPCG:  Solving for p_rgh, Initial residual = 0.00254458, Final residual = 2.22989e-05, No Iterations 140
diagonal:  Solving for rho, Initial residual = 0, Final residual = 0, No Iterations 0
time step continuity errors : sum local = 9.31458e-10, global = -3.55692e-11, cumulative = 8.38092e-07
DICPCG:  Solving for p_rgh, Initial residual = 0.000501467, Final residual = 8.46749e-09, No Iterations 191
diagonal:  Solving for rho, Initial residual = 0, Final residual = 0, No Iterations 0
time step continuity errors : sum local = 1.93332e-10, global = -5.25485e-14, cumulative = 8.38092e-07
ExecutionTime = 5.11 s  ClockTime = 6 s

Courant Number mean: 0.0841982 max: 0.426643
Time = 0.15

diagonal:  Solving for rho, Initial residual = 0, Final residual = 0, No Iterations 0
DILUPBiCGStab:  Solving for Ux, Initial residual = 0.00684054, Final residual = 9.53399e-07, No Iterations 1
DILUPBiCGStab:  Solving for Uy, Initial residual = 0.00613835, Final residual = 4.40242e-08, No Iterations 2
DILUPBiCGStab:  Solving for h, Initial residual = 0.0219714, Final residual = 7.23458e-07, No Iterations 4
DICPCG:  Solving for p_rgh, Initial residual = 0.00245037, Final residual = 2.36713e-05, No Iterations 143
diagonal:  Solving for rho, Initial residual = 0, Final residual = 0, No Iterations 0
time step continuity errors : sum local = 8.47583e-10, global = -9.81066e-12, cumulative = 8.38082e-07
DICPCG:  Solving for p_rgh, Initial residual = 0.000430747, Final residual = 8.60901e-09, No Iterations 191
diagonal:  Solving for rho, Initial residual = 0, Final residual = 0, No Iterations 0
time step continuity errors : sum local = 1.96399e-10, global = -4.25929e-13, cumulative = 8.38082e-07
ExecutionTime = 5.43 s  ClockTime = 6 s

Courant Number mean: 0.0841972 max: 0.427105
Time = 0.16

diagonal:  Solving for rho, Initial residual = 0, Final residual = 0, No Iterations 0
DILUPBiCGStab:  Solving for Ux, Initial residual = 0.00624312, Final residual = 8.82761e-07, No Iterations 1
DILUPBiCGStab:  Solving for Uy, Initial residual = 0.00618931, Final residual = 4.25292e-08, No Iterations 2
DILUPBiCGStab:  Solving for h, Initial residual = 0.0207421, Final residual = 7.13801e-07, No Iterations 4
DICPCG:  Solving for p_rgh, Initial residual = 0.00238332, Final residual = 2.1821e-05, No Iterations 147
diagonal:  Solving for rho, Initial residual = 0, Final residual = 0, No Iterations 0
time step continuity errors : sum local = 7.34922e-10, global = -1.53827e-11, cumulative = 8.38066e-07
DICPCG:  Solving for p_rgh, Initial residual = 0.000370703, Final residual = 9.81021e-09, No Iterations 189
diagonal:  Solving for rho, Initial residual = 0, Final residual = 0, No Iterations 0
time step continuity errors : sum local = 1.93922e-10, global = -1.08637e-13, cumulative = 8.38066e-07
ExecutionTime = 5.75 s  ClockTime = 7 s

Courant Number mean: 0.0841965 max: 0.427549
Time = 0.17

diagonal:  Solving for rho, Initial residual = 0, Final residual = 0, No Iterations 0
DILUPBiCGStab:  Solving for Ux, Initial residual = 0.00590836, Final residual = 8.24639e-07, No Iterations 1
DILUPBiCGStab:  Solving for Uy, Initial residual = 0.00624566, Final residual = 4.11796e-08, No Iterations 2
DILUPBiCGStab:  Solving for h, Initial residual = 0.0196588, Final residual = 6.97457e-07, No Iterations 4
DICPCG:  Solving for p_rgh, Initial residual = 0.00231091, Final residual = 1.9746e-05, No Iterations 148
diagonal:  Solving for rho, Initial residual = 0, Final residual = 0, No Iterations 0
time step continuity errors : sum local = 6.65112e-10, global = -1.61489e-11, cumulative = 8.3805e-07
DICPCG:  Solving for p_rgh, Initial residual = 0.000338449, Final residual = 8.67566e-09, No Iterations 189
diagonal:  Solving for rho, Initial residual = 0, Final residual = 0, No Iterations 0
time step continuity errors : sum local = 1.96498e-10, global = 4.10756e-13, cumulative = 8.3805e-07
ExecutionTime = 6.07 s  ClockTime = 7 s

Courant Number mean: 0.0841964 max: 0.427977
Time = 0.18

diagonal:  Solving for rho, Initial residual = 0, Final residual = 0, No Iterations 0
DILUPBiCGStab:  Solving for Ux, Initial residual = 0.00564654, Final residual = 7.73178e-07, No Iterations 1
DILUPBiCGStab:  Solving for Uy, Initial residual = 0.00630779, Final residual = 3.99776e-08, No Iterations 2
DILUPBiCGStab:  Solving for h, Initial residual = 0.0186898, Final residual = 6.62339e-07, No Iterations 4
DICPCG:  Solving for p_rgh, Initial residual = 0.0021434, Final residual = 1.76868e-05, No Iterations 148
diagonal:  Solving for rho, Initial residual = 0, Final residual = 0, No Iterations 0
time step continuity errors : sum local = 6.00988e-10, global = -1.7606e-11, cumulative = 8.38033e-07
DICPCG:  Solving for p_rgh, Initial residual = 0.000318305, Final residual = 8.14239e-09, No Iterations 189
diagonal:  Solving for rho, Initial residual = 0, Final residual = 0, No Iterations 0
time step continuity errors : sum local = 1.94212e-10, global = 3.63103e-13, cumulative = 8.38033e-07
ExecutionTime = 6.38 s  ClockTime = 7 s

Courant Number mean: 0.0841965 max: 0.428388
Time = 0.19

diagonal:  Solving for rho, Initial residual = 0, Final residual = 0, No Iterations 0
DILUPBiCGStab:  Solving for Ux, Initial residual = 0.00537519, Final residual = 7.26154e-07, No Iterations 1
DILUPBiCGStab:  Solving for Uy, Initial residual = 0.00637456, Final residual = 3.88802e-08, No Iterations 2
DILUPBiCGStab:  Solving for h, Initial residual = 0.0178265, Final residual = 6.22151e-07, No Iterations 4
DICPCG:  Solving for p_rgh, Initial residual = 0.00207262, Final residual = 1.98855e-05, No Iterations 146
diagonal:  Solving for rho, Initial residual = 0, Final residual = 0, No Iterations 0
time step continuity errors : sum local = 6.56031e-10, global = -1.62896e-11, cumulative = 8.38017e-07
DICPCG:  Solving for p_rgh, Initial residual = 0.000311516, Final residual = 8.52167e-09, No Iterations 189
diagonal:  Solving for rho, Initial residual = 0, Final residual = 0, No Iterations 0
time step continuity errors : sum local = 1.94838e-10, global = 2.56768e-13, cumulative = 8.38017e-07
ExecutionTime = 6.71 s  ClockTime = 8 s

Courant Number mean: 0.0841967 max: 0.428783
Time = 0.2

diagonal:  Solving for rho, Initial residual = 0, Final residual = 0, No Iterations 0
DILUPBiCGStab:  Solving for Ux, Initial residual = 0.00509851, Final residual = 6.83231e-07, No Iterations 1
DILUPBiCGStab:  Solving for Uy, Initial residual = 0.00644847, Final residual = 3.78816e-08, No Iterations 2
DILUPBiCGStab:  Solving for h, Initial residual = 0.0170444, Final residual = 5.87054e-07, No Iterations 4
DICPCG:  Solving for p_rgh, Initial residual = 0.00202593, Final residual = 1.99676e-05, No Iterations 145
diagonal:  Solving for rho, Initial residual = 0, Final residual = 0, No Iterations 0
time step continuity errors : sum local = 6.47768e-10, global = -1.6065e-11, cumulative = 8.38001e-07
DICPCG:  Solving for p_rgh, Initial residual = 0.000302192, Final residual = 8.18169e-09, No Iterations 189
diagonal:  Solving for rho, Initial residual = 0, Final residual = 0, No Iterations 0
time step continuity errors : sum local = 1.94023e-10, global = -4.68181e-14, cumulative = 8.38001e-07
ExecutionTime = 7.4 s  ClockTime = 8 s

Courant Number mean: 0.0841968 max: 0.429161
Time = 0.21

diagonal:  Solving for rho, Initial residual = 0, Final residual = 0, No Iterations 0
DILUPBiCGStab:  Solving for Ux, Initial residual = 0.00484128, Final residual = 6.44249e-07, No Iterations 1
DILUPBiCGStab:  Solving for Uy, Initial residual = 0.00652537, Final residual = 3.69767e-08, No Iterations 2
DILUPBiCGStab:  Solving for h, Initial residual = 0.0163353, Final residual = 5.58934e-07, No Iterations 4
DICPCG:  Solving for p_rgh, Initial residual = 0.0019906, Final residual = 1.81412e-05, No Iterations 147
diagonal:  Solving for rho, Initial residual = 0, Final residual = 0, No Iterations 0
time step continuity errors : sum local = 5.77481e-10, global = -1.77362e-11, cumulative = 8.37983e-07
DICPCG:  Solving for p_rgh, Initial residual = 0.00028928, Final residual = 9.79526e-09, No Iterations 188
diagonal:  Solving for rho, Initial residual = 0, Final residual = 0, No Iterations 0
time step continuity errors : sum local = 1.9419e-10, global = -9.10578e-13, cumulative = 8.37982e-07
ExecutionTime = 7.71 s  ClockTime = 9 s

Courant Number mean: 0.0841969 max: 0.429524
Time = 0.22

diagonal:  Solving for rho, Initial residual = 0, Final residual = 0, No Iterations 0
DILUPBiCGStab:  Solving for Ux, Initial residual = 0.00461438, Final residual = 6.0883e-07, No Iterations 1
DILUPBiCGStab:  Solving for Uy, Initial residual = 0.00660508, Final residual = 3.61369e-08, No Iterations 2
DILUPBiCGStab:  Solving for h, Initial residual = 0.0156891, Final residual = 5.35342e-07, No Iterations 4
DICPCG:  Solving for p_rgh, Initial residual = 0.00194908, Final residual = 1.75719e-05, No Iterations 147
diagonal:  Solving for rho, Initial residual = 0, Final residual = 0, No Iterations 0
time step continuity errors : sum local = 5.51948e-10, global = -1.83539e-11, cumulative = 8.37964e-07
DICPCG:  Solving for p_rgh, Initial residual = 0.000279375, Final residual = 9.98131e-09, No Iterations 187
diagonal:  Solving for rho, Initial residual = 0, Final residual = 0, No Iterations 0
time step continuity errors : sum local = 1.94753e-10, global = 7.37844e-14, cumulative = 8.37964e-07
ExecutionTime = 8.03 s  ClockTime = 9 s

Courant Number mean: 0.0841971 max: 0.429872
Time = 0.23

diagonal:  Solving for rho, Initial residual = 0, Final residual = 0, No Iterations 0
DILUPBiCGStab:  Solving for Ux, Initial residual = 0.00441604, Final residual = 5.76499e-07, No Iterations 1
DILUPBiCGStab:  Solving for Uy, Initial residual = 0.00668533, Final residual = 3.53477e-08, No Iterations 2
DILUPBiCGStab:  Solving for h, Initial residual = 0.0151016, Final residual = 5.14275e-07, No Iterations 4
DICPCG:  Solving for p_rgh, Initial residual = 0.00191182, Final residual = 1.78444e-05, No Iterations 147
diagonal:  Solving for rho, Initial residual = 0, Final residual = 0, No Iterations 0
time step continuity errors : sum local = 5.52196e-10, global = -1.9689e-11, cumulative = 8.37944e-07
DICPCG:  Solving for p_rgh, Initial residual = 0.000268071, Final residual = 9.61993e-09, No Iterations 186
diagonal:  Solving for rho, Initial residual = 0, Final residual = 0, No Iterations 0
time step continuity errors : sum local = 1.9643e-10, global = -2.29871e-13, cumulative = 8.37944e-07
ExecutionTime = 8.34 s  ClockTime = 9 s

Courant Number mean: 0.0841973 max: 0.430206
Time = 0.24

diagonal:  Solving for rho, Initial residual = 0, Final residual = 0, No Iterations 0
DILUPBiCGStab:  Solving for Ux, Initial residual = 0.00423709, Final residual = 5.46839e-07, No Iterations 1
DILUPBiCGStab:  Solving for Uy, Initial residual = 0.00675793, Final residual = 3.45721e-08, No Iterations 2
DILUPBiCGStab:  Solving for h, Initial residual = 0.0145583, Final residual = 4.94568e-07, No Iterations 4
DICPCG:  Solving for p_rgh, Initial residual = 0.0018711, Final residual = 1.6879e-05, No Iterations 147
diagonal:  Solving for rho, Initial residual = 0, Final residual = 0, No Iterations 0
time step continuity errors : sum local = 5.20962e-10, global = -1.96234e-11, cumulative = 8.37924e-07
DICPCG:  Solving for p_rgh, Initial residual = 0.000258884, Final residual = 9.84332e-09, No Iterations 185
diagonal:  Solving for rho, Initial residual = 0, Final residual = 0, No Iterations 0
time step continuity errors : sum local = 1.94335e-10, global = -7.42452e-13, cumulative = 8.37924e-07
ExecutionTime = 8.66 s  ClockTime = 10 s

Courant Number mean: 0.0841975 max: 0.430526
Time = 0.25

diagonal:  Solving for rho, Initial residual = 0, Final residual = 0, No Iterations 0
DILUPBiCGStab:  Solving for Ux, Initial residual = 0.00407209, Final residual = 5.19589e-07, No Iterations 1
DILUPBiCGStab:  Solving for Uy, Initial residual = 0.00683025, Final residual = 3.38227e-08, No Iterations 2
DILUPBiCGStab:  Solving for h, Initial residual = 0.014057, Final residual = 4.76329e-07, No Iterations 4
DICPCG:  Solving for p_rgh, Initial residual = 0.00182929, Final residual = 1.73343e-05, No Iterations 146
diagonal:  Solving for rho, Initial residual = 0, Final residual = 0, No Iterations 0
time step continuity errors : sum local = 5.27124e-10, global = -2.06421e-11, cumulative = 8.37903e-07
DICPCG:  Solving for p_rgh, Initial residual = 0.000250539, Final residual = 9.41529e-09, No Iterations 185
diagonal:  Solving for rho, Initial residual = 0, Final residual = 0, No Iterations 0
time step continuity errors : sum local = 1.94363e-10, global = -5.44241e-14, cumulative = 8.37903e-07
ExecutionTime = 8.97 s  ClockTime = 10 s

Courant Number mean: 0.0841978 max: 0.430833
Time = 0.26

diagonal:  Solving for rho, Initial residual = 0, Final residual = 0, No Iterations 0
DILUPBiCGStab:  Solving for Ux, Initial residual = 0.00391883, Final residual = 4.94483e-07, No Iterations 1
DILUPBiCGStab:  Solving for Uy, Initial residual = 0.00689911, Final residual = 3.31007e-08, No Iterations 2
DILUPBiCGStab:  Solving for h, Initial residual = 0.0135918, Final residual = 4.59587e-07, No Iterations 4
DICPCG:  Solving for p_rgh, Initial residual = 0.00181329, Final residual = 1.76223e-05, No Iterations 145
diagonal:  Solving for rho, Initial residual = 0, Final residual = 0, No Iterations 0
time step continuity errors : sum local = 5.23002e-10, global = -2.13258e-11, cumulative = 8.37882e-07
DICPCG:  Solving for p_rgh, Initial residual = 0.00024639, Final residual = 9.3359e-09, No Iterations 185
diagonal:  Solving for rho, Initial residual = 0, Final residual = 0, No Iterations 0
time step continuity errors : sum local = 1.92475e-10, global = -2.50466e-13, cumulative = 8.37881e-07
ExecutionTime = 9.29 s  ClockTime = 10 s

Courant Number mean: 0.0841981 max: 0.431127
Time = 0.27

diagonal:  Solving for rho, Initial residual = 0, Final residual = 0, No Iterations 0
DILUPBiCGStab:  Solving for Ux, Initial residual = 0.00377611, Final residual = 4.71337e-07, No Iterations 1
DILUPBiCGStab:  Solving for Uy, Initial residual = 0.00696439, Final residual = 3.23937e-08, No Iterations 2
DILUPBiCGStab:  Solving for h, Initial residual = 0.0131622, Final residual = 4.44329e-07, No Iterations 4
DICPCG:  Solving for p_rgh, Initial residual = 0.0017992, Final residual = 1.74511e-05, No Iterations 144
diagonal:  Solving for rho, Initial residual = 0, Final residual = 0, No Iterations 0
time step continuity errors : sum local = 5.17093e-10, global = -2.23942e-11, cumulative = 8.37859e-07
DICPCG:  Solving for p_rgh, Initial residual = 0.00024144, Final residual = 8.89072e-09, No Iterations 185
diagonal:  Solving for rho, Initial residual = 0, Final residual = 0, No Iterations 0
time step continuity errors : sum local = 1.9514e-10, global = 3.26805e-13, cumulative = 8.37859e-07
ExecutionTime = 9.61 s  ClockTime = 11 s

Courant Number mean: 0.0841984 max: 0.431408
Time = 0.28

diagonal:  Solving for rho, Initial residual = 0, Final residual = 0, No Iterations 0
DILUPBiCGStab:  Solving for Ux, Initial residual = 0.00364339, Final residual = 4.49873e-07, No Iterations 1
DILUPBiCGStab:  Solving for Uy, Initial residual = 0.00702311, Final residual = 3.16886e-08, No Iterations 2
DILUPBiCGStab:  Solving for h, Initial residual = 0.0127643, Final residual = 4.30415e-07, No Iterations 4
DICPCG:  Solving for p_rgh, Initial residual = 0.00178333, Final residual = 1.72722e-05, No Iterations 141
diagonal:  Solving for rho, Initial residual = 0, Final residual = 0, No Iterations 0
time step continuity errors : sum local = 5.02961e-10, global = -1.96337e-11, cumulative = 8.3784e-07
DICPCG:  Solving for p_rgh, Initial residual = 0.000238005, Final residual = 8.83421e-09, No Iterations 185
diagonal:  Solving for rho, Initial residual = 0, Final residual = 0, No Iterations 0
time step continuity errors : sum local = 1.91241e-10, global = 1.21584e-14, cumulative = 8.3784e-07
ExecutionTime = 9.92 s  ClockTime = 11 s

Courant Number mean: 0.0841987 max: 0.431678
Time = 0.29

diagonal:  Solving for rho, Initial residual = 0, Final residual = 0, No Iterations 0
DILUPBiCGStab:  Solving for Ux, Initial residual = 0.00351978, Final residual = 4.29898e-07, No Iterations 1
DILUPBiCGStab:  Solving for Uy, Initial residual = 0.00706999, Final residual = 3.09746e-08, No Iterations 2
DILUPBiCGStab:  Solving for h, Initial residual = 0.0123899, Final residual = 4.17401e-07, No Iterations 4
DICPCG:  Solving for p_rgh, Initial residual = 0.001747, Final residual = 1.69238e-05, No Iterations 140
diagonal:  Solving for rho, Initial residual = 0, Final residual = 0, No Iterations 0
time step continuity errors : sum local = 4.87392e-10, global = -1.84396e-11, cumulative = 8.37821e-07
DICPCG:  Solving for p_rgh, Initial residual = 0.000229834, Final residual = 9.89914e-09, No Iterations 184
diagonal:  Solving for rho, Initial residual = 0, Final residual = 0, No Iterations 0
time step continuity errors : sum local = 1.90823e-10, global = 4.5791e-14, cumulative = 8.37821e-07
ExecutionTime = 10.23 s  ClockTime = 11 s

Courant Number mean: 0.0841991 max: 0.431936
Time = 0.3

diagonal:  Solving for rho, Initial residual = 0, Final residual = 0, No Iterations 0
DILUPBiCGStab:  Solving for Ux, Initial residual = 0.00340449, Final residual = 4.11279e-07, No Iterations 1
DILUPBiCGStab:  Solving for Uy, Initial residual = 0.00710941, Final residual = 3.02499e-08, No Iterations 2
DILUPBiCGStab:  Solving for h, Initial residual = 0.0120388, Final residual = 4.0524e-07, No Iterations 4
DICPCG:  Solving for p_rgh, Initial residual = 0.00172923, Final residual = 1.50005e-05, No Iterations 140
diagonal:  Solving for rho, Initial residual = 0, Final residual = 0, No Iterations 0
time step continuity errors : sum local = 4.37553e-10, global = -1.94069e-11, cumulative = 8.37802e-07
DICPCG:  Solving for p_rgh, Initial residual = 0.00022413, Final residual = 9.87182e-09, No Iterations 183
diagonal:  Solving for rho, Initial residual = 0, Final residual = 0, No Iterations 0
time step continuity errors : sum local = 1.94082e-10, global = -1.93117e-13, cumulative = 8.37802e-07
ExecutionTime = 10.53 s  ClockTime = 12 s

Courant Number mean: 0.0841995 max: 0.432182
Time = 0.31

diagonal:  Solving for rho, Initial residual = 0, Final residual = 0, No Iterations 0
DILUPBiCGStab:  Solving for Ux, Initial residual = 0.00329789, Final residual = 3.9389e-07, No Iterations 1
DILUPBiCGStab:  Solving for Uy, Initial residual = 0.00714028, Final residual = 2.95228e-08, No Iterations 2
DILUPBiCGStab:  Solving for h, Initial residual = 0.0117086, Final residual = 9.79759e-07, No Iterations 3
DICPCG:  Solving for p_rgh, Initial residual = 0.00170805, Final residual = 1.34322e-05, No Iterations 139
diagonal:  Solving for rho, Initial residual = 0, Final residual = 0, No Iterations 0
time step continuity errors : sum local = 4.01428e-10, global = -2.00117e-11, cumulative = 8.37782e-07
DICPCG:  Solving for p_rgh, Initial residual = 0.00021775, Final residual = 9.81817e-09, No Iterations 183
diagonal:  Solving for rho, Initial residual = 0, Final residual = 0, No Iterations 0
time step continuity errors : sum local = 1.90235e-10, global = -2.30913e-15, cumulative = 8.37782e-07
ExecutionTime = 10.84 s  ClockTime = 12 s

Courant Number mean: 0.0842 max: 0.432418
Time = 0.32

diagonal:  Solving for rho, Initial residual = 0, Final residual = 0, No Iterations 0
DILUPBiCGStab:  Solving for Ux, Initial residual = 0.00319738, Final residual = 3.77618e-07, No Iterations 1
DILUPBiCGStab:  Solving for Uy, Initial residual = 0.00716172, Final residual = 2.87867e-08, No Iterations 2
DILUPBiCGStab:  Solving for h, Initial residual = 0.0113996, Final residual = 9.60201e-07, No Iterations 3
DICPCG:  Solving for p_rgh, Initial residual = 0.00169134, Final residual = 1.57393e-05, No Iterations 140
diagonal:  Solving for rho, Initial residual = 0, Final residual = 0, No Iterations 0
time step continuity errors : sum local = 4.50318e-10, global = -1.94418e-11, cumulative = 8.37762e-07
DICPCG:  Solving for p_rgh, Initial residual = 0.0002168, Final residual = 9.61363e-09, No Iterations 183
diagonal:  Solving for rho, Initial residual = 0, Final residual = 0, No Iterations 0
time step continuity errors : sum local = 1.91543e-10, global = -4.5823e-15, cumulative = 8.37762e-07
ExecutionTime = 11.15 s  ClockTime = 12 s

Courant Number mean: 0.0842006 max: 0.432644
Time = 0.33

diagonal:  Solving for rho, Initial residual = 0, Final residual = 0, No Iterations 0
DILUPBiCGStab:  Solving for Ux, Initial residual = 0.00310429, Final residual = 3.62354e-07, No Iterations 1
DILUPBiCGStab:  Solving for Uy, Initial residual = 0.00717434, Final residual = 2.80442e-08, No Iterations 2
DILUPBiCGStab:  Solving for h, Initial residual = 0.0111099, Final residual = 9.36921e-07, No Iterations 3
DICPCG:  Solving for p_rgh, Initial residual = 0.00167648, Final residual = 1.4158e-05, No Iterations 139
diagonal:  Solving for rho, Initial residual = 0, Final residual = 0, No Iterations 0
time step continuity errors : sum local = 4.05945e-10, global = -2.01734e-11, cumulative = 8.37742e-07
DICPCG:  Solving for p_rgh, Initial residual = 0.000211406, Final residual = 9.26649e-09, No Iterations 183
diagonal:  Solving for rho, Initial residual = 0, Final residual = 0, No Iterations 0
time step continuity errors : sum local = 1.91575e-10, global = 1.68121e-13, cumulative = 8.37742e-07
ExecutionTime = 11.46 s  ClockTime = 12 s

Courant Number mean: 0.0842013 max: 0.432859
Time = 0.34

diagonal:  Solving for rho, Initial residual = 0, Final residual = 0, No Iterations 0
DILUPBiCGStab:  Solving for Ux, Initial residual = 0.00301715, Final residual = 3.48068e-07, No Iterations 1
DILUPBiCGStab:  Solving for Uy, Initial residual = 0.00717557, Final residual = 9.96788e-07, No Iterations 1
DILUPBiCGStab:  Solving for h, Initial residual = 0.0108374, Final residual = 9.13996e-07, No Iterations 3
DICPCG:  Solving for p_rgh, Initial residual = 0.0016445, Final residual = 1.34236e-05, No Iterations 139
diagonal:  Solving for rho, Initial residual = 0, Final residual = 0, No Iterations 0
time step continuity errors : sum local = 3.86925e-10, global = -2.13266e-11, cumulative = 8.37721e-07
DICPCG:  Solving for p_rgh, Initial residual = 0.000205565, Final residual = 9.02414e-09, No Iterations 183
diagonal:  Solving for rho, Initial residual = 0, Final residual = 0, No Iterations 0
time step continuity errors : sum local = 1.95235e-10, global = -2.6455e-13, cumulative = 8.37721e-07
ExecutionTime = 11.76 s  ClockTime = 13 s

Courant Number mean: 0.0842022 max: 0.433065
Time = 0.35

diagonal:  Solving for rho, Initial residual = 0, Final residual = 0, No Iterations 0
DILUPBiCGStab:  Solving for Ux, Initial residual = 0.00293493, Final residual = 3.34633e-07, No Iterations 1
DILUPBiCGStab:  Solving for Uy, Initial residual = 0.00716604, Final residual = 9.75994e-07, No Iterations 1
DILUPBiCGStab:  Solving for h, Initial residual = 0.0105776, Final residual = 8.91937e-07, No Iterations 3
DICPCG:  Solving for p_rgh, Initial residual = 0.00165078, Final residual = 1.5949e-05, No Iterations 138
diagonal:  Solving for rho, Initial residual = 0, Final residual = 0, No Iterations 0
time step continuity errors : sum local = 4.37424e-10, global = -2.20171e-11, cumulative = 8.37699e-07
DICPCG:  Solving for p_rgh, Initial residual = 0.000204931, Final residual = 9.8772e-09, No Iterations 182
diagonal:  Solving for rho, Initial residual = 0, Final residual = 0, No Iterations 0
time step continuity errors : sum local = 1.93111e-10, global = -1.34865e-14, cumulative = 8.37699e-07
ExecutionTime = 12.07 s  ClockTime = 13 s

Courant Number mean: 0.084203 max: 0.433261
Time = 0.36

diagonal:  Solving for rho, Initial residual = 0, Final residual = 0, No Iterations 0
DILUPBiCGStab:  Solving for Ux, Initial residual = 0.0028571, Final residual = 3.22008e-07, No Iterations 1
DILUPBiCGStab:  Solving for Uy, Initial residual = 0.00714366, Final residual = 9.54118e-07, No Iterations 1
DILUPBiCGStab:  Solving for h, Initial residual = 0.0103306, Final residual = 8.70978e-07, No Iterations 3
DICPCG:  Solving for p_rgh, Initial residual = 0.00163754, Final residual = 1.55387e-05, No Iterations 138
diagonal:  Solving for rho, Initial residual = 0, Final residual = 0, No Iterations 0
time step continuity errors : sum local = 4.27738e-10, global = -2.29965e-11, cumulative = 8.37676e-07
DICPCG:  Solving for p_rgh, Initial residual = 0.000203953, Final residual = 9.93451e-09, No Iterations 181
diagonal:  Solving for rho, Initial residual = 0, Final residual = 0, No Iterations 0
time step continuity errors : sum local = 1.88395e-10, global = -3.59137e-13, cumulative = 8.37675e-07
ExecutionTime = 12.38 s  ClockTime = 13 s

Courant Number mean: 0.084204 max: 0.433448
Time = 0.37

diagonal:  Solving for rho, Initial residual = 0, Final residual = 0, No Iterations 0
DILUPBiCGStab:  Solving for Ux, Initial residual = 0.00278331, Final residual = 3.10209e-07, No Iterations 1
DILUPBiCGStab:  Solving for Uy, Initial residual = 0.00710933, Final residual = 9.31236e-07, No Iterations 1
DILUPBiCGStab:  Solving for h, Initial residual = 0.0100957, Final residual = 8.51216e-07, No Iterations 3
DICPCG:  Solving for p_rgh, Initial residual = 0.00159899, Final residual = 1.52672e-05, No Iterations 138
diagonal:  Solving for rho, Initial residual = 0, Final residual = 0, No Iterations 0
time step continuity errors : sum local = 4.19974e-10, global = -2.34136e-11, cumulative = 8.37652e-07
DICPCG:  Solving for p_rgh, Initial residual = 0.000199578, Final residual = 9.60421e-09, No Iterations 181
diagonal:  Solving for rho, Initial residual = 0, Final residual = 0, No Iterations 0
time step continuity errors : sum local = 1.92624e-10, global = -1.11314e-12, cumulative = 8.37651e-07
ExecutionTime = 12.68 s  ClockTime = 14 s

Courant Number mean: 0.084205 max: 0.433625
Time = 0.38

diagonal:  Solving for rho, Initial residual = 0, Final residual = 0, No Iterations 0
DILUPBiCGStab:  Solving for Ux, Initial residual = 0.00271337, Final residual = 2.99076e-07, No Iterations 1
DILUPBiCGStab:  Solving for Uy, Initial residual = 0.00706933, Final residual = 9.08536e-07, No Iterations 1
DILUPBiCGStab:  Solving for h, Initial residual = 0.00987348, Final residual = 8.32593e-07, No Iterations 3
DICPCG:  Solving for p_rgh, Initial residual = 0.00160152, Final residual = 1.54514e-05, No Iterations 138
diagonal:  Solving for rho, Initial residual = 0, Final residual = 0, No Iterations 0
time step continuity errors : sum local = 4.17274e-10, global = -2.44965e-11, cumulative = 8.37626e-07
DICPCG:  Solving for p_rgh, Initial residual = 0.000196974, Final residual = 9.35192e-09, No Iterations 181
diagonal:  Solving for rho, Initial residual = 0, Final residual = 0, No Iterations 0
time step continuity errors : sum local = 1.93123e-10, global = -4.49084e-13, cumulative = 8.37626e-07
ExecutionTime = 12.98 s  ClockTime = 14 s

Courant Number mean: 0.0842061 max: 0.433795
Time = 0.39

diagonal:  Solving for rho, Initial residual = 0, Final residual = 0, No Iterations 0
DILUPBiCGStab:  Solving for Ux, Initial residual = 0.00264691, Final residual = 2.88543e-07, No Iterations 1
DILUPBiCGStab:  Solving for Uy, Initial residual = 0.00702574, Final residual = 8.86185e-07, No Iterations 1
DILUPBiCGStab:  Solving for h, Initial residual = 0.00966302, Final residual = 8.15e-07, No Iterations 3
DICPCG:  Solving for p_rgh, Initial residual = 0.00160114, Final residual = 1.58094e-05, No Iterations 138
diagonal:  Solving for rho, Initial residual = 0, Final residual = 0, No Iterations 0
time step continuity errors : sum local = 4.2356e-10, global = -2.56066e-11, cumulative = 8.376e-07
DICPCG:  Solving for p_rgh, Initial residual = 0.000194372, Final residual = 8.33913e-09, No Iterations 180
diagonal:  Solving for rho, Initial residual = 0, Final residual = 0, No Iterations 0
time step continuity errors : sum local = 1.93147e-10, global = -4.48976e-13, cumulative = 8.376e-07
ExecutionTime = 13.29 s  ClockTime = 14 s

Courant Number mean: 0.0842072 max: 0.433955
Time = 0.4

diagonal:  Solving for rho, Initial residual = 0, Final residual = 0, No Iterations 0
DILUPBiCGStab:  Solving for Ux, Initial residual = 0.00258358, Final residual = 2.78546e-07, No Iterations 1
DILUPBiCGStab:  Solving for Uy, Initial residual = 0.00697972, Final residual = 8.64068e-07, No Iterations 1
DILUPBiCGStab:  Solving for h, Initial residual = 0.00946343, Final residual = 7.98383e-07, No Iterations 3
DICPCG:  Solving for p_rgh, Initial residual = 0.00157121, Final residual = 1.35573e-05, No Iterations 139
diagonal:  Solving for rho, Initial residual = 0, Final residual = 0, No Iterations 0
time step continuity errors : sum local = 3.73327e-10, global = -2.75514e-11, cumulative = 8.37572e-07
DICPCG:  Solving for p_rgh, Initial residual = 0.000191167, Final residual = 9.46099e-09, No Iterations 180
diagonal:  Solving for rho, Initial residual = 0, Final residual = 0, No Iterations 0
time step continuity errors : sum local = 1.9124e-10, global = 2.15766e-13, cumulative = 8.37572e-07
ExecutionTime = 13.94 s  ClockTime = 15 s

Courant Number mean: 0.0842084 max: 0.434108
Time = 0.41

diagonal:  Solving for rho, Initial residual = 0, Final residual = 0, No Iterations 0
DILUPBiCGStab:  Solving for Ux, Initial residual = 0.00252367, Final residual = 2.69049e-07, No Iterations 1
DILUPBiCGStab:  Solving for Uy, Initial residual = 0.00693326, Final residual = 8.42651e-07, No Iterations 1
DILUPBiCGStab:  Solving for h, Initial residual = 0.0092737, Final residual = 7.82626e-07, No Iterations 3
DICPCG:  Solving for p_rgh, Initial residual = 0.00159191, Final residual = 1.42104e-05, No Iterations 139
diagonal:  Solving for rho, Initial residual = 0, Final residual = 0, No Iterations 0
time step continuity errors : sum local = 3.88022e-10, global = -2.8894e-11, cumulative = 8.37544e-07
DICPCG:  Solving for p_rgh, Initial residual = 0.00018926, Final residual = 9.23601e-09, No Iterations 180
diagonal:  Solving for rho, Initial residual = 0, Final residual = 0, No Iterations 0
time step continuity errors : sum local = 1.93136e-10, global = 6.78065e-13, cumulative = 8.37544e-07
ExecutionTime = 14.25 s  ClockTime = 15 s

Courant Number mean: 0.0842097 max: 0.434253
Time = 0.42

diagonal:  Solving for rho, Initial residual = 0, Final residual = 0, No Iterations 0
DILUPBiCGStab:  Solving for Ux, Initial residual = 0.00246659, Final residual = 2.60019e-07, No Iterations 1
DILUPBiCGStab:  Solving for Uy, Initial residual = 0.00688373, Final residual = 8.21515e-07, No Iterations 1
DILUPBiCGStab:  Solving for h, Initial residual = 0.00909069, Final residual = 7.67459e-07, No Iterations 3
DICPCG:  Solving for p_rgh, Initial residual = 0.00157907, Final residual = 1.51026e-05, No Iterations 139
diagonal:  Solving for rho, Initial residual = 0, Final residual = 0, No Iterations 0
time step continuity errors : sum local = 4.00018e-10, global = -2.84526e-11, cumulative = 8.37516e-07
DICPCG:  Solving for p_rgh, Initial residual = 0.000189545, Final residual = 8.9552e-09, No Iterations 180
diagonal:  Solving for rho, Initial residual = 0, Final residual = 0, No Iterations 0
time step continuity errors : sum local = 1.90293e-10, global = -3.3808e-13, cumulative = 8.37515e-07
ExecutionTime = 14.55 s  ClockTime = 16 s

Courant Number mean: 0.084211 max: 0.43439
Time = 0.43

diagonal:  Solving for rho, Initial residual = 0, Final residual = 0, No Iterations 0
DILUPBiCGStab:  Solving for Ux, Initial residual = 0.00241208, Final residual = 2.51427e-07, No Iterations 1
DILUPBiCGStab:  Solving for Uy, Initial residual = 0.0068348, Final residual = 8.00861e-07, No Iterations 1
DILUPBiCGStab:  Solving for h, Initial residual = 0.00891499, Final residual = 7.52926e-07, No Iterations 3
DICPCG:  Solving for p_rgh, Initial residual = 0.00153153, Final residual = 1.50788e-05, No Iterations 139
diagonal:  Solving for rho, Initial residual = 0, Final residual = 0, No Iterations 0
time step continuity errors : sum local = 4.01706e-10, global = -2.8268e-11, cumulative = 8.37487e-07
DICPCG:  Solving for p_rgh, Initial residual = 0.000183923, Final residual = 8.51356e-09, No Iterations 180
diagonal:  Solving for rho, Initial residual = 0, Final residual = 0, No Iterations 0
time step continuity errors : sum local = 1.91275e-10, global = 1.07437e-13, cumulative = 8.37487e-07
ExecutionTime = 14.85 s  ClockTime = 16 s

Courant Number mean: 0.0842123 max: 0.43452
Time = 0.44

diagonal:  Solving for rho, Initial residual = 0, Final residual = 0, No Iterations 0
DILUPBiCGStab:  Solving for Ux, Initial residual = 0.00236012, Final residual = 2.4325e-07, No Iterations 1
DILUPBiCGStab:  Solving for Uy, Initial residual = 0.00678527, Final residual = 7.80992e-07, No Iterations 1
DILUPBiCGStab:  Solving for h, Initial residual = 0.00874609, Final residual = 7.3898e-07, No Iterations 3
DICPCG:  Solving for p_rgh, Initial residual = 0.001525, Final residual = 1.49938e-05, No Iterations 139
diagonal:  Solving for rho, Initial residual = 0, Final residual = 0, No Iterations 0
time step continuity errors : sum local = 3.96943e-10, global = -2.78997e-11, cumulative = 8.37459e-07
DICPCG:  Solving for p_rgh, Initial residual = 0.000180585, Final residual = 8.19762e-09, No Iterations 180
diagonal:  Solving for rho, Initial residual = 0, Final residual = 0, No Iterations 0
time step continuity errors : sum local = 1.89685e-10, global = -3.18837e-14, cumulative = 8.37459e-07
ExecutionTime = 15.16 s  ClockTime = 16 s

Courant Number mean: 0.0842137 max: 0.434643
Time = 0.45

diagonal:  Solving for rho, Initial residual = 0, Final residual = 0, No Iterations 0
DILUPBiCGStab:  Solving for Ux, Initial residual = 0.00231048, Final residual = 2.35486e-07, No Iterations 1
DILUPBiCGStab:  Solving for Uy, Initial residual = 0.00673486, Final residual = 7.61606e-07, No Iterations 1
DILUPBiCGStab:  Solving for h, Initial residual = 0.00858483, Final residual = 7.25686e-07, No Iterations 3
DICPCG:  Solving for p_rgh, Initial residual = 0.0015424, Final residual = 1.4822e-05, No Iterations 133
diagonal:  Solving for rho, Initial residual = 0, Final residual = 0, No Iterations 0
time step continuity errors : sum local = 3.89329e-10, global = -2.46135e-11, cumulative = 8.37435e-07
DICPCG:  Solving for p_rgh, Initial residual = 0.000180861, Final residual = 7.9317e-09, No Iterations 180
diagonal:  Solving for rho, Initial residual = 0, Final residual = 0, No Iterations 0
time step continuity errors : sum local = 1.89224e-10, global = 8.32952e-13, cumulative = 8.37436e-07
ExecutionTime = 15.47 s  ClockTime = 16 s

Courant Number mean: 0.0842151 max: 0.434759
Time = 0.46

diagonal:  Solving for rho, Initial residual = 0, Final residual = 0, No Iterations 0
DILUPBiCGStab:  Solving for Ux, Initial residual = 0.002263, Final residual = 2.28088e-07, No Iterations 1
DILUPBiCGStab:  Solving for Uy, Initial residual = 0.00668597, Final residual = 7.42822e-07, No Iterations 1
DILUPBiCGStab:  Solving for h, Initial residual = 0.00843077, Final residual = 7.13011e-07, No Iterations 3
DICPCG:  Solving for p_rgh, Initial residual = 0.00151579, Final residual = 1.43949e-05, No Iterations 131
diagonal:  Solving for rho, Initial residual = 0, Final residual = 0, No Iterations 0
time step continuity errors : sum local = 3.80414e-10, global = -2.52154e-11, cumulative = 8.3741e-07
DICPCG:  Solving for p_rgh, Initial residual = 0.000177688, Final residual = 9.83168e-09, No Iterations 179
diagonal:  Solving for rho, Initial residual = 0, Final residual = 0, No Iterations 0
time step continuity errors : sum local = 1.90042e-10, global = 5.92519e-13, cumulative = 8.37411e-07
ExecutionTime = 15.76 s  ClockTime = 17 s

Courant Number mean: 0.0842166 max: 0.434869
Time = 0.47

diagonal:  Solving for rho, Initial residual = 0, Final residual = 0, No Iterations 0
DILUPBiCGStab:  Solving for Ux, Initial residual = 0.00221762, Final residual = 2.21031e-07, No Iterations 1
DILUPBiCGStab:  Solving for Uy, Initial residual = 0.00663625, Final residual = 7.24646e-07, No Iterations 1
DILUPBiCGStab:  Solving for h, Initial residual = 0.00828346, Final residual = 7.0092e-07, No Iterations 3
DICPCG:  Solving for p_rgh, Initial residual = 0.00154318, Final residual = 1.36448e-05, No Iterations 130
diagonal:  Solving for rho, Initial residual = 0, Final residual = 0, No Iterations 0
time step continuity errors : sum local = 3.61669e-10, global = -2.5104e-11, cumulative = 8.37386e-07
DICPCG:  Solving for p_rgh, Initial residual = 0.000173825, Final residual = 9.5846e-09, No Iterations 179
diagonal:  Solving for rho, Initial residual = 0, Final residual = 0, No Iterations 0
time step continuity errors : sum local = 1.90376e-10, global = -9.15903e-13, cumulative = 8.37385e-07
ExecutionTime = 16.06 s  ClockTime = 17 s

Courant Number mean: 0.084218 max: 0.434971
Time = 0.48

diagonal:  Solving for rho, Initial residual = 0, Final residual = 0, No Iterations 0
DILUPBiCGStab:  Solving for Ux, Initial residual = 0.00217418, Final residual = 2.14304e-07, No Iterations 1
DILUPBiCGStab:  Solving for Uy, Initial residual = 0.00658683, Final residual = 7.06933e-07, No Iterations 1
DILUPBiCGStab:  Solving for h, Initial residual = 0.00814247, Final residual = 6.89362e-07, No Iterations 3
DICPCG:  Solving for p_rgh, Initial residual = 0.00153821, Final residual = 1.53574e-05, No Iterations 128
diagonal:  Solving for rho, Initial residual = 0, Final residual = 0, No Iterations 0
time step continuity errors : sum local = 3.91805e-10, global = -2.52665e-11, cumulative = 8.3736e-07
DICPCG:  Solving for p_rgh, Initial residual = 0.000174678, Final residual = 9.54964e-09, No Iterations 179
diagonal:  Solving for rho, Initial residual = 0, Final residual = 0, No Iterations 0
time step continuity errors : sum local = 1.91544e-10, global = -2.5529e-13, cumulative = 8.37359e-07
ExecutionTime = 16.35 s  ClockTime = 17 s

Courant Number mean: 0.0842195 max: 0.435068
Time = 0.49

diagonal:  Solving for rho, Initial residual = 0, Final residual = 0, No Iterations 0
DILUPBiCGStab:  Solving for Ux, Initial residual = 0.00213246, Final residual = 2.07919e-07, No Iterations 1
DILUPBiCGStab:  Solving for Uy, Initial residual = 0.00653865, Final residual = 6.89734e-07, No Iterations 1
DILUPBiCGStab:  Solving for h, Initial residual = 0.00800741, Final residual = 6.78295e-07, No Iterations 3
DICPCG:  Solving for p_rgh, Initial residual = 0.00147985, Final residual = 1.442e-05, No Iterations 126
diagonal:  Solving for rho, Initial residual = 0, Final residual = 0, No Iterations 0
time step continuity errors : sum local = 3.74383e-10, global = -2.62011e-11, cumulative = 8.37333e-07
DICPCG:  Solving for p_rgh, Initial residual = 0.000172501, Final residual = 9.031e-09, No Iterations 179
diagonal:  Solving for rho, Initial residual = 0, Final residual = 0, No Iterations 0
time step continuity errors : sum local = 1.91105e-10, global = 3.26995e-13, cumulative = 8.37334e-07
ExecutionTime = 16.66 s  ClockTime = 18 s

Courant Number mean: 0.0842211 max: 0.435159
Time = 0.5

diagonal:  Solving for rho, Initial residual = 0, Final residual = 0, No Iterations 0
DILUPBiCGStab:  Solving for Ux, Initial residual = 0.00209239, Final residual = 2.01859e-07, No Iterations 1
DILUPBiCGStab:  Solving for Uy, Initial residual = 0.00648924, Final residual = 6.73116e-07, No Iterations 1
DILUPBiCGStab:  Solving for h, Initial residual = 0.00787661, Final residual = 6.67588e-07, No Iterations 3
DICPCG:  Solving for p_rgh, Initial residual = 0.00147902, Final residual = 1.41964e-05, No Iterations 126
diagonal:  Solving for rho, Initial residual = 0, Final residual = 0, No Iterations 0
time step continuity errors : sum local = 3.67276e-10, global = -2.58482e-11, cumulative = 8.37308e-07
DICPCG:  Solving for p_rgh, Initial residual = 0.000170966, Final residual = 9.44215e-09, No Iterations 179
diagonal:  Solving for rho, Initial residual = 0, Final residual = 0, No Iterations 0
time step continuity errors : sum local = 1.91871e-10, global = 3.92012e-13, cumulative = 8.37308e-07
ExecutionTime = 16.95 s  ClockTime = 18 s

Courant Number mean: 0.0842226 max: 0.435243
Time = 0.51

diagonal:  Solving for rho, Initial residual = 0, Final residual = 0, No Iterations 0
DILUPBiCGStab:  Solving for Ux, Initial residual = 0.00205385, Final residual = 1.96099e-07, No Iterations 1
DILUPBiCGStab:  Solving for Uy, Initial residual = 0.00644011, Final residual = 6.56825e-07, No Iterations 1
DILUPBiCGStab:  Solving for h, Initial residual = 0.00775013, Final residual = 6.57341e-07, No Iterations 3
DICPCG:  Solving for p_rgh, Initial residual = 0.00148813, Final residual = 1.41213e-05, No Iterations 126
diagonal:  Solving for rho, Initial residual = 0, Final residual = 0, No Iterations 0
time step continuity errors : sum local = 3.6326e-10, global = -2.79982e-11, cumulative = 8.3728e-07
DICPCG:  Solving for p_rgh, Initial residual = 0.00017058, Final residual = 9.16817e-09, No Iterations 179
diagonal:  Solving for rho, Initial residual = 0, Final residual = 0, No Iterations 0
time step continuity errors : sum local = 1.92745e-10, global = -1.16563e-12, cumulative = 8.37279e-07
ExecutionTime = 17.25 s  ClockTime = 18 s

Courant Number mean: 0.0842242 max: 0.435322
Time = 0.52

diagonal:  Solving for rho, Initial residual = 0, Final residual = 0, No Iterations 0
DILUPBiCGStab:  Solving for Ux, Initial residual = 0.00201676, Final residual = 1.90591e-07, No Iterations 1
DILUPBiCGStab:  Solving for Uy, Initial residual = 0.006392, Final residual = 6.41101e-07, No Iterations 1
DILUPBiCGStab:  Solving for h, Initial residual = 0.00762686, Final residual = 6.47383e-07, No Iterations 3
DICPCG:  Solving for p_rgh, Initial residual = 0.00146831, Final residual = 1.42183e-05, No Iterations 126
diagonal:  Solving for rho, Initial residual = 0, Final residual = 0, No Iterations 0
time step continuity errors : sum local = 3.69616e-10, global = -2.94986e-11, cumulative = 8.37249e-07
DICPCG:  Solving for p_rgh, Initial residual = 0.000167511, Final residual = 9.36742e-09, No Iterations 179
diagonal:  Solving for rho, Initial residual = 0, Final residual = 0, No Iterations 0
time step continuity errors : sum local = 1.94347e-10, global = -3.20324e-13, cumulative = 8.37249e-07
ExecutionTime = 17.54 s  ClockTime = 19 s

Courant Number mean: 0.0842257 max: 0.435396
Time = 0.53

diagonal:  Solving for rho, Initial residual = 0, Final residual = 0, No Iterations 0
DILUPBiCGStab:  Solving for Ux, Initial residual = 0.00198106, Final residual = 1.85308e-07, No Iterations 1
DILUPBiCGStab:  Solving for Uy, Initial residual = 0.00634355, Final residual = 6.25897e-07, No Iterations 1
DILUPBiCGStab:  Solving for h, Initial residual = 0.00750829, Final residual = 6.37811e-07, No Iterations 3
DICPCG:  Solving for p_rgh, Initial residual = 0.00145929, Final residual = 1.44699e-05, No Iterations 126
diagonal:  Solving for rho, Initial residual = 0, Final residual = 0, No Iterations 0
time step continuity errors : sum local = 3.70666e-10, global = -3.14178e-11, cumulative = 8.37218e-07
DICPCG:  Solving for p_rgh, Initial residual = 0.000165237, Final residual = 9.49018e-09, No Iterations 179
diagonal:  Solving for rho, Initial residual = 0, Final residual = 0, No Iterations 0
time step continuity errors : sum local = 1.91983e-10, global = 2.80145e-13, cumulative = 8.37218e-07
ExecutionTime = 17.84 s  ClockTime = 19 s

Courant Number mean: 0.0842273 max: 0.435464
Time = 0.54

diagonal:  Solving for rho, Initial residual = 0, Final residual = 0, No Iterations 0
DILUPBiCGStab:  Solving for Ux, Initial residual = 0.00194695, Final residual = 1.80237e-07, No Iterations 1
DILUPBiCGStab:  Solving for Uy, Initial residual = 0.00629626, Final residual = 6.11111e-07, No Iterations 1
DILUPBiCGStab:  Solving for h, Initial residual = 0.00739417, Final residual = 6.28612e-07, No Iterations 3
DICPCG:  Solving for p_rgh, Initial residual = 0.00145548, Final residual = 1.36168e-05, No Iterations 127
diagonal:  Solving for rho, Initial residual = 0, Final residual = 0, No Iterations 0
time step continuity errors : sum local = 3.52399e-10, global = -3.44476e-11, cumulative = 8.37183e-07
DICPCG:  Solving for p_rgh, Initial residual = 0.000163148, Final residual = 9.52223e-09, No Iterations 179
diagonal:  Solving for rho, Initial residual = 0, Final residual = 0, No Iterations 0
time step continuity errors : sum local = 1.89935e-10, global = -6.75564e-14, cumulative = 8.37183e-07
ExecutionTime = 18.14 s  ClockTime = 19 s

Courant Number mean: 0.0842289 max: 0.435527
Time = 0.55

diagonal:  Solving for rho, Initial residual = 0, Final residual = 0, No Iterations 0
DILUPBiCGStab:  Solving for Ux, Initial residual = 0.00191413, Final residual = 1.75367e-07, No Iterations 1
DILUPBiCGStab:  Solving for Uy, Initial residual = 0.00624947, Final residual = 5.96773e-07, No Iterations 1
DILUPBiCGStab:  Solving for h, Initial residual = 0.00728428, Final residual = 6.19777e-07, No Iterations 3
DICPCG:  Solving for p_rgh, Initial residual = 0.00146801, Final residual = 1.40328e-05, No Iterations 127
diagonal:  Solving for rho, Initial residual = 0, Final residual = 0, No Iterations 0
time step continuity errors : sum local = 3.65095e-10, global = -3.5004e-11, cumulative = 8.37148e-07
DICPCG:  Solving for p_rgh, Initial residual = 0.000161202, Final residual = 9.47479e-09, No Iterations 179
diagonal:  Solving for rho, Initial residual = 0, Final residual = 0, No Iterations 0
time step continuity errors : sum local = 1.90666e-10, global = 9.61367e-13, cumulative = 8.37149e-07
ExecutionTime = 18.44 s  ClockTime = 19 s

Courant Number mean: 0.0842305 max: 0.435585
Time = 0.56

diagonal:  Solving for rho, Initial residual = 0, Final residual = 0, No Iterations 0
DILUPBiCGStab:  Solving for Ux, Initial residual = 0.00188245, Final residual = 1.70725e-07, No Iterations 1
DILUPBiCGStab:  Solving for Uy, Initial residual = 0.00620219, Final residual = 5.82917e-07, No Iterations 1
DILUPBiCGStab:  Solving for h, Initial residual = 0.00717839, Final residual = 6.1127e-07, No Iterations 3
DICPCG:  Solving for p_rgh, Initial residual = 0.00144336, Final residual = 1.40269e-05, No Iterations 128
diagonal:  Solving for rho, Initial residual = 0, Final residual = 0, No Iterations 0
time step continuity errors : sum local = 3.59267e-10, global = -3.7485e-11, cumulative = 8.37112e-07
DICPCG:  Solving for p_rgh, Initial residual = 0.00016097, Final residual = 9.3509e-09, No Iterations 179
diagonal:  Solving for rho, Initial residual = 0, Final residual = 0, No Iterations 0
time step continuity errors : sum local = 1.90812e-10, global = 5.43332e-13, cumulative = 8.37112e-07
ExecutionTime = 18.73 s  ClockTime = 20 s

Courant Number mean: 0.0842322 max: 0.435638
Time = 0.57

diagonal:  Solving for rho, Initial residual = 0, Final residual = 0, No Iterations 0
DILUPBiCGStab:  Solving for Ux, Initial residual = 0.00185185, Final residual = 1.66284e-07, No Iterations 1
DILUPBiCGStab:  Solving for Uy, Initial residual = 0.0061561, Final residual = 5.69427e-07, No Iterations 1
DILUPBiCGStab:  Solving for h, Initial residual = 0.0070763, Final residual = 6.03075e-07, No Iterations 3
DICPCG:  Solving for p_rgh, Initial residual = 0.00143343, Final residual = 1.3427e-05, No Iterations 129
diagonal:  Solving for rho, Initial residual = 0, Final residual = 0, No Iterations 0
time step continuity errors : sum local = 3.4889e-10, global = -3.89803e-11, cumulative = 8.37073e-07
DICPCG:  Solving for p_rgh, Initial residual = 0.000159159, Final residual = 8.92098e-09, No Iterations 179
diagonal:  Solving for rho, Initial residual = 0, Final residual = 0, No Iterations 0
time step continuity errors : sum local = 1.86536e-10, global = -1.34982e-13, cumulative = 8.37073e-07
ExecutionTime = 19.03 s  ClockTime = 20 s

Courant Number mean: 0.0842338 max: 0.435686
Time = 0.58

diagonal:  Solving for rho, Initial residual = 0, Final residual = 0, No Iterations 0
DILUPBiCGStab:  Solving for Ux, Initial residual = 0.0018223, Final residual = 1.62015e-07, No Iterations 1
DILUPBiCGStab:  Solving for Uy, Initial residual = 0.00611098, Final residual = 5.56378e-07, No Iterations 1
DILUPBiCGStab:  Solving for h, Initial residual = 0.00697783, Final residual = 5.95169e-07, No Iterations 3
DICPCG:  Solving for p_rgh, Initial residual = 0.00142551, Final residual = 1.42449e-05, No Iterations 129
diagonal:  Solving for rho, Initial residual = 0, Final residual = 0, No Iterations 0
time step continuity errors : sum local = 3.61382e-10, global = -3.99511e-11, cumulative = 8.37033e-07
DICPCG:  Solving for p_rgh, Initial residual = 0.000157301, Final residual = 9.02897e-09, No Iterations 178
diagonal:  Solving for rho, Initial residual = 0, Final residual = 0, No Iterations 0
time step continuity errors : sum local = 1.87347e-10, global = -2.06312e-13, cumulative = 8.37033e-07
ExecutionTime = 19.33 s  ClockTime = 20 s

Courant Number mean: 0.0842355 max: 0.43573
Time = 0.59

diagonal:  Solving for rho, Initial residual = 0, Final residual = 0, No Iterations 0
DILUPBiCGStab:  Solving for Ux, Initial residual = 0.00179377, Final residual = 1.57907e-07, No Iterations 1
DILUPBiCGStab:  Solving for Uy, Initial residual = 0.0060656, Final residual = 5.43751e-07, No Iterations 1
DILUPBiCGStab:  Solving for h, Initial residual = 0.0068828, Final residual = 5.87536e-07, No Iterations 3
DICPCG:  Solving for p_rgh, Initial residual = 0.00143016, Final residual = 1.25941e-05, No Iterations 130
diagonal:  Solving for rho, Initial residual = 0, Final residual = 0, No Iterations 0
time step continuity errors : sum local = 3.33082e-10, global = -3.96773e-11, cumulative = 8.36993e-07
DICPCG:  Solving for p_rgh, Initial residual = 0.000156517, Final residual = 9.77949e-09, No Iterations 175
diagonal:  Solving for rho, Initial residual = 0, Final residual = 0, No Iterations 0
time step continuity errors : sum local = 1.85676e-10, global = 1.94e-13, cumulative = 8.36994e-07
ExecutionTime = 19.62 s  ClockTime = 21 s

Courant Number mean: 0.0842372 max: 0.435769
Time = 0.6

diagonal:  Solving for rho, Initial residual = 0, Final residual = 0, No Iterations 0
DILUPBiCGStab:  Solving for Ux, Initial residual = 0.0017661, Final residual = 1.53939e-07, No Iterations 1
DILUPBiCGStab:  Solving for Uy, Initial residual = 0.00602069, Final residual = 5.31404e-07, No Iterations 1
DILUPBiCGStab:  Solving for h, Initial residual = 0.0067901, Final residual = 5.8008e-07, No Iterations 3
DICPCG:  Solving for p_rgh, Initial residual = 0.00140764, Final residual = 1.25055e-05, No Iterations 131
diagonal:  Solving for rho, Initial residual = 0, Final residual = 0, No Iterations 0
time step continuity errors : sum local = 3.29413e-10, global = -3.99464e-11, cumulative = 8.36954e-07
DICPCG:  Solving for p_rgh, Initial residual = 0.000156792, Final residual = 9.55855e-09, No Iterations 178
diagonal:  Solving for rho, Initial residual = 0, Final residual = 0, No Iterations 0
time step continuity errors : sum local = 1.88011e-10, global = -9.87232e-15, cumulative = 8.36954e-07
ExecutionTime = 20.26 s  ClockTime = 21 s

Courant Number mean: 0.0842389 max: 0.435805
Time = 0.61

diagonal:  Solving for rho, Initial residual = 0, Final residual = 0, No Iterations 0
DILUPBiCGStab:  Solving for Ux, Initial residual = 0.00173924, Final residual = 1.50103e-07, No Iterations 1
DILUPBiCGStab:  Solving for Uy, Initial residual = 0.00597657, Final residual = 5.19462e-07, No Iterations 1
DILUPBiCGStab:  Solving for h, Initial residual = 0.00669981, Final residual = 5.72816e-07, No Iterations 3
DICPCG:  Solving for p_rgh, Initial residual = 0.00138143, Final residual = 1.3356e-05, No Iterations 131
diagonal:  Solving for rho, Initial residual = 0, Final residual = 0, No Iterations 0
time step continuity errors : sum local = 3.44969e-10, global = -4.02318e-11, cumulative = 8.36913e-07
DICPCG:  Solving for p_rgh, Initial residual = 0.000152713, Final residual = 9.47105e-09, No Iterations 178
diagonal:  Solving for rho, Initial residual = 0, Final residual = 0, No Iterations 0
time step continuity errors : sum local = 1.87496e-10, global = -5.29769e-13, cumulative = 8.36913e-07
ExecutionTime = 20.57 s  ClockTime = 22 s

Courant Number mean: 0.0842406 max: 0.435836
Time = 0.62

diagonal:  Solving for rho, Initial residual = 0, Final residual = 0, No Iterations 0
DILUPBiCGStab:  Solving for Ux, Initial residual = 0.00171321, Final residual = 1.46395e-07, No Iterations 1
DILUPBiCGStab:  Solving for Uy, Initial residual = 0.00593211, Final residual = 5.07886e-07, No Iterations 1
DILUPBiCGStab:  Solving for h, Initial residual = 0.00661118, Final residual = 5.65676e-07, No Iterations 3
DICPCG:  Solving for p_rgh, Initial residual = 0.00139808, Final residual = 1.20449e-05, No Iterations 132
diagonal:  Solving for rho, Initial residual = 0, Final residual = 0, No Iterations 0
time step continuity errors : sum local = 3.19515e-10, global = -3.93774e-11, cumulative = 8.36874e-07
DICPCG:  Solving for p_rgh, Initial residual = 0.00015133, Final residual = 8.89676e-09, No Iterations 178
diagonal:  Solving for rho, Initial residual = 0, Final residual = 0, No Iterations 0
time step continuity errors : sum local = 1.88595e-10, global = 7.1641e-13, cumulative = 8.36874e-07
ExecutionTime = 20.87 s  ClockTime = 22 s

Courant Number mean: 0.0842423 max: 0.435863
Time = 0.63

diagonal:  Solving for rho, Initial residual = 0, Final residual = 0, No Iterations 0
DILUPBiCGStab:  Solving for Ux, Initial residual = 0.00168799, Final residual = 1.42817e-07, No Iterations 1
DILUPBiCGStab:  Solving for Uy, Initial residual = 0.00588868, Final residual = 4.96587e-07, No Iterations 1
DILUPBiCGStab:  Solving for h, Initial residual = 0.00652536, Final residual = 5.5876e-07, No Iterations 3
DICPCG:  Solving for p_rgh, Initial residual = 0.00141006, Final residual = 1.33532e-05, No Iterations 132
diagonal:  Solving for rho, Initial residual = 0, Final residual = 0, No Iterations 0
time step continuity errors : sum local = 3.41448e-10, global = -3.89758e-11, cumulative = 8.36835e-07
DICPCG:  Solving for p_rgh, Initial residual = 0.000151376, Final residual = 8.59029e-09, No Iterations 178
diagonal:  Solving for rho, Initial residual = 0, Final residual = 0, No Iterations 0
time step continuity errors : sum local = 1.90617e-10, global = 2.72466e-13, cumulative = 8.36836e-07
ExecutionTime = 21.17 s  ClockTime = 22 s

Courant Number mean: 0.084244 max: 0.435886
Time = 0.64

diagonal:  Solving for rho, Initial residual = 0, Final residual = 0, No Iterations 0
DILUPBiCGStab:  Solving for Ux, Initial residual = 0.00166354, Final residual = 1.39357e-07, No Iterations 1
DILUPBiCGStab:  Solving for Uy, Initial residual = 0.0058466, Final residual = 4.85713e-07, No Iterations 1
DILUPBiCGStab:  Solving for h, Initial residual = 0.00644226, Final residual = 5.52081e-07, No Iterations 3
DICPCG:  Solving for p_rgh, Initial residual = 0.00141022, Final residual = 1.21041e-05, No Iterations 133
diagonal:  Solving for rho, Initial residual = 0, Final residual = 0, No Iterations 0
time step continuity errors : sum local = 3.1906e-10, global = -3.81854e-11, cumulative = 8.36797e-07
DICPCG:  Solving for p_rgh, Initial residual = 0.000150989, Final residual = 8.94917e-09, No Iterations 178
diagonal:  Solving for rho, Initial residual = 0, Final residual = 0, No Iterations 0
time step continuity errors : sum local = 1.86391e-10, global = -9.31395e-13, cumulative = 8.36796e-07
ExecutionTime = 21.47 s  ClockTime = 22 s

Courant Number mean: 0.0842458 max: 0.435906
Time = 0.65

diagonal:  Solving for rho, Initial residual = 0, Final residual = 0, No Iterations 0
DILUPBiCGStab:  Solving for Ux, Initial residual = 0.00163982, Final residual = 1.36012e-07, No Iterations 1
DILUPBiCGStab:  Solving for Uy, Initial residual = 0.00580529, Final residual = 4.75217e-07, No Iterations 1
DILUPBiCGStab:  Solving for h, Initial residual = 0.00636179, Final residual = 5.45688e-07, No Iterations 3
DICPCG:  Solving for p_rgh, Initial residual = 0.00135814, Final residual = 1.2822e-05, No Iterations 133
diagonal:  Solving for rho, Initial residual = 0, Final residual = 0, No Iterations 0
time step continuity errors : sum local = 3.29529e-10, global = -3.78556e-11, cumulative = 8.36759e-07
DICPCG:  Solving for p_rgh, Initial residual = 0.000148417, Final residual = 9.07611e-09, No Iterations 178
diagonal:  Solving for rho, Initial residual = 0, Final residual = 0, No Iterations 0
time step continuity errors : sum local = 1.88629e-10, global = 1.6565e-14, cumulative = 8.36759e-07
ExecutionTime = 21.77 s  ClockTime = 23 s

Courant Number mean: 0.0842475 max: 0.435922
Time = 0.66

diagonal:  Solving for rho, Initial residual = 0, Final residual = 0, No Iterations 0
DILUPBiCGStab:  Solving for Ux, Initial residual = 0.00161678, Final residual = 1.32781e-07, No Iterations 1
DILUPBiCGStab:  Solving for Uy, Initial residual = 0.00576456, Final residual = 4.64957e-07, No Iterations 1
DILUPBiCGStab:  Solving for h, Initial residual = 0.0062838, Final residual = 5.39493e-07, No Iterations 3
DICPCG:  Solving for p_rgh, Initial residual = 0.00134494, Final residual = 1.3127e-05, No Iterations 133
diagonal:  Solving for rho, Initial residual = 0, Final residual = 0, No Iterations 0
time step continuity errors : sum local = 3.34147e-10, global = -3.92453e-11, cumulative = 8.36719e-07
DICPCG:  Solving for p_rgh, Initial residual = 0.00014837, Final residual = 9.39939e-09, No Iterations 178
diagonal:  Solving for rho, Initial residual = 0, Final residual = 0, No Iterations 0
time step continuity errors : sum local = 1.89872e-10, global = -2.18697e-13, cumulative = 8.36719e-07
ExecutionTime = 22.07 s  ClockTime = 23 s

Courant Number mean: 0.0842493 max: 0.435942
Time = 0.67

diagonal:  Solving for rho, Initial residual = 0, Final residual = 0, No Iterations 0
DILUPBiCGStab:  Solving for Ux, Initial residual = 0.0015944, Final residual = 1.2969e-07, No Iterations 1
DILUPBiCGStab:  Solving for Uy, Initial residual = 0.00572457, Final residual = 4.5505e-07, No Iterations 1
DILUPBiCGStab:  Solving for h, Initial residual = 0.00620819, Final residual = 5.33487e-07, No Iterations 3
DICPCG:  Solving for p_rgh, Initial residual = 0.00133335, Final residual = 1.28819e-05, No Iterations 133
diagonal:  Solving for rho, Initial residual = 0, Final residual = 0, No Iterations 0
time step continuity errors : sum local = 3.27873e-10, global = -4.03605e-11, cumulative = 8.36679e-07
DICPCG:  Solving for p_rgh, Initial residual = 0.000144849, Final residual = 9.61909e-09, No Iterations 178
diagonal:  Solving for rho, Initial residual = 0, Final residual = 0, No Iterations 0
time step continuity errors : sum local = 1.89109e-10, global = -3.24668e-13, cumulative = 8.36678e-07
ExecutionTime = 22.36 s  ClockTime = 23 s

Courant Number mean: 0.0842511 max: 0.43596
Time = 0.68

diagonal:  Solving for rho, Initial residual = 0, Final residual = 0, No Iterations 0
DILUPBiCGStab:  Solving for Ux, Initial residual = 0.00157269, Final residual = 1.26731e-07, No Iterations 1
DILUPBiCGStab:  Solving for Uy, Initial residual = 0.00568475, Final residual = 4.45493e-07, No Iterations 1
DILUPBiCGStab:  Solving for h, Initial residual = 0.00613487, Final residual = 5.27658e-07, No Iterations 3
DICPCG:  Solving for p_rgh, Initial residual = 0.00136134, Final residual = 1.35884e-05, No Iterations 133
diagonal:  Solving for rho, Initial residual = 0, Final residual = 0, No Iterations 0
time step continuity errors : sum local = 3.42566e-10, global = -4.09647e-11, cumulative = 8.36638e-07
DICPCG:  Solving for p_rgh, Initial residual = 0.00014697, Final residual = 8.45061e-09, No Iterations 179
diagonal:  Solving for rho, Initial residual = 0, Final residual = 0, No Iterations 0
time step continuity errors : sum local = 1.88295e-10, global = 2.47447e-13, cumulative = 8.36638e-07
ExecutionTime = 22.67 s  ClockTime = 24 s

Courant Number mean: 0.0842529 max: 0.435975
Time = 0.69

diagonal:  Solving for rho, Initial residual = 0, Final residual = 0, No Iterations 0
DILUPBiCGStab:  Solving for Ux, Initial residual = 0.00155161, Final residual = 1.23876e-07, No Iterations 1
DILUPBiCGStab:  Solving for Uy, Initial residual = 0.00564662, Final residual = 4.36186e-07, No Iterations 1
DILUPBiCGStab:  Solving for h, Initial residual = 0.00606372, Final residual = 5.22e-07, No Iterations 3
DICPCG:  Solving for p_rgh, Initial residual = 0.0013592, Final residual = 1.33629e-05, No Iterations 133
diagonal:  Solving for rho, Initial residual = 0, Final residual = 0, No Iterations 0
time step continuity errors : sum local = 3.40611e-10, global = -4.18393e-11, cumulative = 8.36596e-07
DICPCG:  Solving for p_rgh, Initial residual = 0.000146033, Final residual = 8.70388e-09, No Iterations 179
diagonal:  Solving for rho, Initial residual = 0, Final residual = 0, No Iterations 0
time step continuity errors : sum local = 1.91448e-10, global = 2.43033e-13, cumulative = 8.36596e-07
ExecutionTime = 22.97 s  ClockTime = 24 s

Courant Number mean: 0.0842547 max: 0.435987
Time = 0.7

diagonal:  Solving for rho, Initial residual = 0, Final residual = 0, No Iterations 0
DILUPBiCGStab:  Solving for Ux, Initial residual = 0.00153122, Final residual = 1.2111e-07, No Iterations 1
DILUPBiCGStab:  Solving for Uy, Initial residual = 0.00560826, Final residual = 4.27123e-07, No Iterations 1
DILUPBiCGStab:  Solving for h, Initial residual = 0.00599463, Final residual = 5.16503e-07, No Iterations 3
[...]
ExecutionTime = 27.17 s  ClockTime = 28 s

Courant Number mean: 0.0842792 max: 0.435869
Time = 0.83

diagonal:  Solving for rho, Initial residual = 0, Final residual = 0, No Iterations 0
DILUPBiCGStab:  Solving for Ux, Initial residual = 0.00131073, Final residual = 9.20142e-08, No Iterations 1
DILUPBiCGStab:  Solving for Uy, Initial residual = 0.00515025, Final residual = 3.30101e-07, No Iterations 1
DILUPBiCGStab:  Solving for h, Initial residual = 0.00522917, Final residual = 4.55181e-07, No Iterations 3
DICPCG:  Solving for p_rgh, Initial residual = 0.00126861, Final residual = 1.20526e-05, No Iterations 122
diagonal:  Solving for rho, Initial residual = 0, Final residual = 0, No Iterations 0
time step continuity errors : sum local = 3.02715e-10, global = -4.54744e-11, cumulative = 8.3593e-07
DICPCG:  Solving for p_rgh, Initial residual = 0.000137949, Final residual = 8.66533e-09, No Iterations 180
diagonal:  Solving for rho, Initial residual = 0, Final residual = 0, No Iterations 0
time step continuity errors : sum local = 1.91943e-10, global = -1.77491e-14, cumulative = 8.3593e-07
ExecutionTime = 27.47 s  ClockTime = 29 s

Courant Number mean: 0.0842812 max: 0.435843
Time = 0.84

diagonal:  Solving for rho, Initial residual = 0, Final residual = 0, No Iterations 0
DILUPBiCGStab:  Solving for Ux, Initial residual = 0.00129655, Final residual = 9.02272e-08, No Iterations 1
DILUPBiCGStab:  Solving for Uy, Initial residual = 0.00511743, Final residual = 3.23979e-07, No Iterations 1
DILUPBiCGStab:  Solving for h, Initial residual = 0.00517999, Final residual = 4.51243e-07, No Iterations 3
DICPCG:  Solving for p_rgh, Initial residual = 0.0012589, Final residual = 1.21293e-05, No Iterations 121
diagonal:  Solving for rho, Initial residual = 0, Final residual = 0, No Iterations 0
time step continuity errors : sum local = 3.03853e-10, global = -4.20476e-11, cumulative = 8.35888e-07
DICPCG:  Solving for p_rgh, Initial residual = 0.000137808, Final residual = 8.54758e-09, No Iterations 180
diagonal:  Solving for rho, Initial residual = 0, Final residual = 0, No Iterations 0
time step continuity errors : sum local = 1.88992e-10, global = 6.88677e-14, cumulative = 8.35888e-07
ExecutionTime = 27.78 s  ClockTime = 29 s

Courant Number mean: 0.0842832 max: 0.435815
Time = 0.85

diagonal:  Solving for rho, Initial residual = 0, Final residual = 0, No Iterations 0
DILUPBiCGStab:  Solving for Ux, Initial residual = 0.0012827, Final residual = 8.84877e-08, No Iterations 1
DILUPBiCGStab:  Solving for Uy, Initial residual = 0.00508651, Final residual = 3.18014e-07, No Iterations 1
DILUPBiCGStab:  Solving for h, Initial residual = 0.005132, Final residual = 4.4739e-07, No Iterations 3
DICPCG:  Solving for p_rgh, Initial residual = 0.0012493, Final residual = 1.19201e-05, No Iterations 120
diagonal:  Solving for rho, Initial residual = 0, Final residual = 0, No Iterations 0
time step continuity errors : sum local = 2.98072e-10, global = -4.04686e-11, cumulative = 8.35848e-07
DICPCG:  Solving for p_rgh, Initial residual = 0.000134205, Final residual = 8.37557e-09, No Iterations 180
diagonal:  Solving for rho, Initial residual = 0, Final residual = 0, No Iterations 0
time step continuity errors : sum local = 1.88008e-10, global = 6.04425e-13, cumulative = 8.35848e-07
ExecutionTime = 28.09 s  ClockTime = 29 s

Courant Number mean: 0.0842852 max: 0.435784
Time = 0.86

diagonal:  Solving for rho, Initial residual = 0, Final residual = 0, No Iterations 0
DILUPBiCGStab:  Solving for Ux, Initial residual = 0.00126913, Final residual = 8.67926e-08, No Iterations 1
DILUPBiCGStab:  Solving for Uy, Initial residual = 0.00505507, Final residual = 3.12189e-07, No Iterations 1
DILUPBiCGStab:  Solving for h, Initial residual = 0.00508465, Final residual = 4.43572e-07, No Iterations 3
DICPCG:  Solving for p_rgh, Initial residual = 0.00125103, Final residual = 1.18515e-05, No Iterations 120
diagonal:  Solving for rho, Initial residual = 0, Final residual = 0, No Iterations 0
time step continuity errors : sum local = 2.97055e-10, global = -4.10137e-11, cumulative = 8.35807e-07
DICPCG:  Solving for p_rgh, Initial residual = 0.000132827, Final residual = 8.27625e-09, No Iterations 180
diagonal:  Solving for rho, Initial residual = 0, Final residual = 0, No Iterations 0
time step continuity errors : sum local = 1.90473e-10, global = 1.3497e-13, cumulative = 8.35807e-07
ExecutionTime = 28.38 s  ClockTime = 29 s

Courant Number mean: 0.0842871 max: 0.435752
Time = 0.87

diagonal:  Solving for rho, Initial residual = 0, Final residual = 0, No Iterations 0
DILUPBiCGStab:  Solving for Ux, Initial residual = 0.00125584, Final residual = 8.51401e-08, No Iterations 1
DILUPBiCGStab:  Solving for Uy, Initial residual = 0.00502344, Final residual = 3.06523e-07, No Iterations 1
DILUPBiCGStab:  Solving for h, Initial residual = 0.00503802, Final residual = 4.39804e-07, No Iterations 3
DICPCG:  Solving for p_rgh, Initial residual = 0.00126419, Final residual = 1.22944e-05, No Iterations 119
diagonal:  Solving for rho, Initial residual = 0, Final residual = 0, No Iterations 0
time step continuity errors : sum local = 3.02088e-10, global = -3.899e-11, cumulative = 8.35768e-07
DICPCG:  Solving for p_rgh, Initial residual = 0.00013321, Final residual = 8.39159e-09, No Iterations 180
diagonal:  Solving for rho, Initial residual = 0, Final residual = 0, No Iterations 0
time step continuity errors : sum local = 1.91547e-10, global = -1.42967e-13, cumulative = 8.35768e-07
ExecutionTime = 28.69 s  ClockTime = 30 s

Courant Number mean: 0.0842891 max: 0.435718
Time = 0.88

diagonal:  Solving for rho, Initial residual = 0, Final residual = 0, No Iterations 0
DILUPBiCGStab:  Solving for Ux, Initial residual = 0.0012428, Final residual = 8.35273e-08, No Iterations 1
DILUPBiCGStab:  Solving for Uy, Initial residual = 0.00499277, Final residual = 3.0097e-07, No Iterations 1
DILUPBiCGStab:  Solving for h, Initial residual = 0.00499175, Final residual = 4.36056e-07, No Iterations 3
DICPCG:  Solving for p_rgh, Initial residual = 0.00122983, Final residual = 1.22105e-05, No Iterations 119
diagonal:  Solving for rho, Initial residual = 0, Final residual = 0, No Iterations 0
time step continuity errors : sum local = 2.99961e-10, global = -3.73988e-11, cumulative = 8.35731e-07
DICPCG:  Solving for p_rgh, Initial residual = 0.000134253, Final residual = 8.42615e-09, No Iterations 180
diagonal:  Solving for rho, Initial residual = 0, Final residual = 0, No Iterations 0
time step continuity errors : sum local = 1.8993e-10, global = 2.69448e-13, cumulative = 8.35731e-07
ExecutionTime = 29 s  ClockTime = 30 s

Courant Number mean: 0.0842911 max: 0.435682
Time = 0.89

diagonal:  Solving for rho, Initial residual = 0, Final residual = 0, No Iterations 0
DILUPBiCGStab:  Solving for Ux, Initial residual = 0.00123004, Final residual = 8.19541e-08, No Iterations 1
DILUPBiCGStab:  Solving for Uy, Initial residual = 0.00496245, Final residual = 2.95576e-07, No Iterations 1
DILUPBiCGStab:  Solving for h, Initial residual = 0.00494649, Final residual = 4.32377e-07, No Iterations 3
DICPCG:  Solving for p_rgh, Initial residual = 0.00121706, Final residual = 1.16865e-05, No Iterations 119
diagonal:  Solving for rho, Initial residual = 0, Final residual = 0, No Iterations 0
time step continuity errors : sum local = 2.95152e-10, global = -3.66188e-11, cumulative = 8.35694e-07
DICPCG:  Solving for p_rgh, Initial residual = 0.000131888, Final residual = 9.69718e-09, No Iterations 179
diagonal:  Solving for rho, Initial residual = 0, Final residual = 0, No Iterations 0
time step continuity errors : sum local = 1.88711e-10, global = 4.19763e-13, cumulative = 8.35695e-07
ExecutionTime = 29.3 s  ClockTime = 30 s

Courant Number mean: 0.0842932 max: 0.435644
Time = 0.9

diagonal:  Solving for rho, Initial residual = 0, Final residual = 0, No Iterations 0
DILUPBiCGStab:  Solving for Ux, Initial residual = 0.00121759, Final residual = 8.04223e-08, No Iterations 1
DILUPBiCGStab:  Solving for Uy, Initial residual = 0.00493213, Final residual = 2.90338e-07, No Iterations 1
DILUPBiCGStab:  Solving for h, Initial residual = 0.0049022, Final residual = 4.28775e-07, No Iterations 3
DICPCG:  Solving for p_rgh, Initial residual = 0.00121643, Final residual = 1.12346e-05, No Iterations 120
diagonal:  Solving for rho, Initial residual = 0, Final residual = 0, No Iterations 0
time step continuity errors : sum local = 2.85565e-10, global = -3.64902e-11, cumulative = 8.35658e-07
DICPCG:  Solving for p_rgh, Initial residual = 0.000132616, Final residual = 9.82864e-09, No Iterations 179
diagonal:  Solving for rho, Initial residual = 0, Final residual = 0, No Iterations 0
time step continuity errors : sum local = 1.91774e-10, global = -5.52976e-14, cumulative = 8.35658e-07
ExecutionTime = 29.61 s  ClockTime = 31 s

Courant Number mean: 0.0842952 max: 0.435605
Time = 0.91

diagonal:  Solving for rho, Initial residual = 0, Final residual = 0, No Iterations 0
DILUPBiCGStab:  Solving for Ux, Initial residual = 0.00120545, Final residual = 7.89365e-08, No Iterations 1
DILUPBiCGStab:  Solving for Uy, Initial residual = 0.00490284, Final residual = 2.85227e-07, No Iterations 1
DILUPBiCGStab:  Solving for h, Initial residual = 0.00485891, Final residual = 4.25245e-07, No Iterations 3
DICPCG:  Solving for p_rgh, Initial residual = 0.00123042, Final residual = 1.08961e-05, No Iterations 121
diagonal:  Solving for rho, Initial residual = 0, Final residual = 0, No Iterations 0
time step continuity errors : sum local = 2.82888e-10, global = -3.53598e-11, cumulative = 8.35623e-07
DICPCG:  Solving for p_rgh, Initial residual = 0.000135684, Final residual = 9.57809e-09, No Iterations 179
diagonal:  Solving for rho, Initial residual = 0, Final residual = 0, No Iterations 0
time step continuity errors : sum local = 1.8771e-10, global = -5.67529e-13, cumulative = 8.35622e-07
ExecutionTime = 29.92 s  ClockTime = 31 s

Courant Number mean: 0.0842972 max: 0.435564
Time = 0.92

diagonal:  Solving for rho, Initial residual = 0, Final residual = 0, No Iterations 0
DILUPBiCGStab:  Solving for Ux, Initial residual = 0.00119356, Final residual = 7.74904e-08, No Iterations 1
DILUPBiCGStab:  Solving for Uy, Initial residual = 0.00487392, Final residual = 2.80224e-07, No Iterations 1
DILUPBiCGStab:  Solving for h, Initial residual = 0.00481657, Final residual = 4.21783e-07, No Iterations 3
DICPCG:  Solving for p_rgh, Initial residual = 0.00122372, Final residual = 1.0511e-05, No Iterations 122
diagonal:  Solving for rho, Initial residual = 0, Final residual = 0, No Iterations 0
time step continuity errors : sum local = 2.79035e-10, global = -3.70317e-11, cumulative = 8.35585e-07
DICPCG:  Solving for p_rgh, Initial residual = 0.000136402, Final residual = 9.63677e-09, No Iterations 179
diagonal:  Solving for rho, Initial residual = 0, Final residual = 0, No Iterations 0
time step continuity errors : sum local = 1.91439e-10, global = -5.83767e-13, cumulative = 8.35585e-07
ExecutionTime = 30.22 s  ClockTime = 31 s

Courant Number mean: 0.0842993 max: 0.435522
Time = 0.93

diagonal:  Solving for rho, Initial residual = 0, Final residual = 0, No Iterations 0
DILUPBiCGStab:  Solving for Ux, Initial residual = 0.00118192, Final residual = 7.60816e-08, No Iterations 1
DILUPBiCGStab:  Solving for Uy, Initial residual = 0.00484448, Final residual = 2.75345e-07, No Iterations 1
DILUPBiCGStab:  Solving for h, Initial residual = 0.00477514, Final residual = 4.18392e-07, No Iterations 3
DICPCG:  Solving for p_rgh, Initial residual = 0.00120555, Final residual = 1.17321e-05, No Iterations 122
diagonal:  Solving for rho, Initial residual = 0, Final residual = 0, No Iterations 0
time step continuity errors : sum local = 2.96948e-10, global = -3.61446e-11, cumulative = 8.35549e-07
DICPCG:  Solving for p_rgh, Initial residual = 0.000132627, Final residual = 9.43268e-09, No Iterations 179
diagonal:  Solving for rho, Initial residual = 0, Final residual = 0, No Iterations 0
time step continuity errors : sum local = 1.9008e-10, global = -1.09547e-12, cumulative = 8.35548e-07
ExecutionTime = 30.52 s  ClockTime = 32 s

Courant Number mean: 0.0843013 max: 0.435478
Time = 0.94

diagonal:  Solving for rho, Initial residual = 0, Final residual = 0, No Iterations 0
DILUPBiCGStab:  Solving for Ux, Initial residual = 0.0011705, Final residual = 7.47069e-08, No Iterations 1
DILUPBiCGStab:  Solving for Uy, Initial residual = 0.00481618, Final residual = 2.70599e-07, No Iterations 1
DILUPBiCGStab:  Solving for h, Initial residual = 0.00473461, Final residual = 4.15097e-07, No Iterations 3
DICPCG:  Solving for p_rgh, Initial residual = 0.00119539, Final residual = 1.12732e-05, No Iterations 124
diagonal:  Solving for rho, Initial residual = 0, Final residual = 0, No Iterations 0
time step continuity errors : sum local = 2.92453e-10, global = -4.05165e-11, cumulative = 8.35507e-07
DICPCG:  Solving for p_rgh, Initial residual = 0.000131042, Final residual = 9.52925e-09, No Iterations 179
diagonal:  Solving for rho, Initial residual = 0, Final residual = 0, No Iterations 0
time step continuity errors : sum local = 1.89863e-10, global = -3.30589e-13, cumulative = 8.35507e-07
ExecutionTime = 30.84 s  ClockTime = 32 s

Courant Number mean: 0.0843034 max: 0.435432
Time = 0.95

diagonal:  Solving for rho, Initial residual = 0, Final residual = 0, No Iterations 0
DILUPBiCGStab:  Solving for Ux, Initial residual = 0.00115932, Final residual = 7.33729e-08, No Iterations 1
DILUPBiCGStab:  Solving for Uy, Initial residual = 0.00478827, Final residual = 2.65959e-07, No Iterations 1
DILUPBiCGStab:  Solving for h, Initial residual = 0.00469496, Final residual = 4.119e-07, No Iterations 3
DICPCG:  Solving for p_rgh, Initial residual = 0.00119581, Final residual = 1.08567e-05, No Iterations 125
diagonal:  Solving for rho, Initial residual = 0, Final residual = 0, No Iterations 0
time step continuity errors : sum local = 2.85866e-10, global = -3.96554e-11, cumulative = 8.35467e-07
DICPCG:  Solving for p_rgh, Initial residual = 0.000132548, Final residual = 9.6688e-09, No Iterations 179
diagonal:  Solving for rho, Initial residual = 0, Final residual = 0, No Iterations 0
time step continuity errors : sum local = 1.87288e-10, global = 3.52065e-14, cumulative = 8.35467e-07
ExecutionTime = 31.14 s  ClockTime = 32 s

Courant Number mean: 0.0843054 max: 0.435385
Time = 0.96

diagonal:  Solving for rho, Initial residual = 0, Final residual = 0, No Iterations 0
DILUPBiCGStab:  Solving for Ux, Initial residual = 0.00114835, Final residual = 7.20857e-08, No Iterations 1
DILUPBiCGStab:  Solving for Uy, Initial residual = 0.00476003, Final residual = 2.6142e-07, No Iterations 1
DILUPBiCGStab:  Solving for h, Initial residual = 0.00465614, Final residual = 4.08767e-07, No Iterations 3
DICPCG:  Solving for p_rgh, Initial residual = 0.00119315, Final residual = 1.09887e-05, No Iterations 125
diagonal:  Solving for rho, Initial residual = 0, Final residual = 0, No Iterations 0
time step continuity errors : sum local = 2.88893e-10, global = -3.9936e-11, cumulative = 8.35427e-07
DICPCG:  Solving for p_rgh, Initial residual = 0.000131083, Final residual = 9.90625e-09, No Iterations 179
diagonal:  Solving for rho, Initial residual = 0, Final residual = 0, No Iterations 0
time step continuity errors : sum local = 1.90766e-10, global = -7.65141e-13, cumulative = 8.35426e-07
ExecutionTime = 31.45 s  ClockTime = 32 s

Courant Number mean: 0.0843075 max: 0.435337
Time = 0.97

diagonal:  Solving for rho, Initial residual = 0, Final residual = 0, No Iterations 0
DILUPBiCGStab:  Solving for Ux, Initial residual = 0.00113761, Final residual = 7.08342e-08, No Iterations 1
DILUPBiCGStab:  Solving for Uy, Initial residual = 0.00473218, Final residual = 2.56995e-07, No Iterations 1
DILUPBiCGStab:  Solving for h, Initial residual = 0.00461815, Final residual = 4.05699e-07, No Iterations 3
DICPCG:  Solving for p_rgh, Initial residual = 0.00118786, Final residual = 1.16638e-05, No Iterations 143
diagonal:  Solving for rho, Initial residual = 0, Final residual = 0, No Iterations 0
time step continuity errors : sum local = 3.04607e-10, global = -4.62847e-11, cumulative = 8.3538e-07
DICPCG:  Solving for p_rgh, Initial residual = 0.000133843, Final residual = 9.40227e-09, No Iterations 179
diagonal:  Solving for rho, Initial residual = 0, Final residual = 0, No Iterations 0
time step continuity errors : sum local = 1.90939e-10, global = -3.23673e-13, cumulative = 8.3538e-07
ExecutionTime = 31.78 s  ClockTime = 33 s

Courant Number mean: 0.0843096 max: 0.435288
Time = 0.98

diagonal:  Solving for rho, Initial residual = 0, Final residual = 0, No Iterations 0
DILUPBiCGStab:  Solving for Ux, Initial residual = 0.00112707, Final residual = 6.96125e-08, No Iterations 1
DILUPBiCGStab:  Solving for Uy, Initial residual = 0.00470555, Final residual = 2.52664e-07, No Iterations 1
DILUPBiCGStab:  Solving for h, Initial residual = 0.00458094, Final residual = 4.02688e-07, No Iterations 3
DICPCG:  Solving for p_rgh, Initial residual = 0.00117811, Final residual = 1.06743e-05, No Iterations 122
diagonal:  Solving for rho, Initial residual = 0, Final residual = 0, No Iterations 0
time step continuity errors : sum local = 2.80599e-10, global = -3.86362e-11, cumulative = 8.35341e-07
DICPCG:  Solving for p_rgh, Initial residual = 0.000130862, Final residual = 9.89317e-09, No Iterations 179
diagonal:  Solving for rho, Initial residual = 0, Final residual = 0, No Iterations 0
time step continuity errors : sum local = 1.9102e-10, global = -6.68333e-13, cumulative = 8.3534e-07
ExecutionTime = 32.09 s  ClockTime = 33 s

Courant Number mean: 0.0843117 max: 0.435237
Time = 0.99

diagonal:  Solving for rho, Initial residual = 0, Final residual = 0, No Iterations 0
DILUPBiCGStab:  Solving for Ux, Initial residual = 0.00111672, Final residual = 6.84258e-08, No Iterations 1
DILUPBiCGStab:  Solving for Uy, Initial residual = 0.00467829, Final residual = 2.48436e-07, No Iterations 1
DILUPBiCGStab:  Solving for h, Initial residual = 0.00454449, Final residual = 3.9973e-07, No Iterations 3
DICPCG:  Solving for p_rgh, Initial residual = 0.00117813, Final residual = 1.17123e-05, No Iterations 124
diagonal:  Solving for rho, Initial residual = 0, Final residual = 0, No Iterations 0
time step continuity errors : sum local = 2.95724e-10, global = -4.22089e-11, cumulative = 8.35298e-07
DICPCG:  Solving for p_rgh, Initial residual = 0.000131992, Final residual = 9.88817e-09, No Iterations 179
diagonal:  Solving for rho, Initial residual = 0, Final residual = 0, No Iterations 0
time step continuity errors : sum local = 1.88446e-10, global = -2.02057e-13, cumulative = 8.35298e-07
ExecutionTime = 32.39 s  ClockTime = 33 s

Courant Number mean: 0.0843138 max: 0.435185
Time = 1

diagonal:  Solving for rho, Initial residual = 0, Final residual = 0, No Iterations 0
DILUPBiCGStab:  Solving for Ux, Initial residual = 0.00110657, Final residual = 6.72651e-08, No Iterations 1
DILUPBiCGStab:  Solving for Uy, Initial residual = 0.00465122, Final residual = 2.44318e-07, No Iterations 1
DILUPBiCGStab:  Solving for h, Initial residual = 0.0045088, Final residual = 3.96825e-07, No Iterations 3
DICPCG:  Solving for p_rgh, Initial residual = 0.00118021, Final residual = 1.12969e-05, No Iterations 143
diagonal:  Solving for rho, Initial residual = 0, Final residual = 0, No Iterations 0
time step continuity errors : sum local = 2.99613e-10, global = -4.65082e-11, cumulative = 8.35252e-07
DICPCG:  Solving for p_rgh, Initial residual = 0.000133302, Final residual = 9.98665e-09, No Iterations 179
diagonal:  Solving for rho, Initial residual = 0, Final residual = 0, No Iterations 0
time step continuity errors : sum local = 1.89918e-10, global = -1.01439e-12, cumulative = 8.35251e-07
ExecutionTime = 33.07 s  ClockTime = 34 s

End

