/*---------------------------------------------------------------------------*\
  =========                 |
  \\      /  F ield         | OpenFOAM: The Open Source CFD Toolbox
   \\    /   O peration     | Website:  https://openfoam.org
    \\  /    A nd           | Version:  7
     \\/     M anipulation  |
\*---------------------------------------------------------------------------*/
Build  : 7-49b2b3b8b082
Exec   : blockMesh
Date   : Apr 17 2023
Time   : 09:29:40
Host   : "c403-131.stampede2.tacc.utexas.edu"
PID    : 144016
I/O    : uncollated
Case   : /work2/08376/lew2547/stampede2/CooliestModel/src/CFD/ConvergenceStudy-luke/z-study/pipe_validation_z_10
nProcs : 1
sigFpe : Enabling floating point exception trapping (FOAM_SIGFPE).
fileModificationChecking : Monitoring run-time modified files using timeStampMaster (fileModificationSkew 10)
allowSystemOperations : Allowing user-supplied system call operations

// * * * * * * * * * * * * * * * * * * * * * * * * * * * * * * * * * * * * * //
Create time

Deleting polyMesh directory
    "/work2/08376/lew2547/stampede2/CooliestModel/src/CFD/ConvergenceStudy-luke/z-study/pipe_validation_z_10/constant/polyMesh"
Creating block mesh from
    "/work2/08376/lew2547/stampede2/CooliestModel/src/CFD/ConvergenceStudy-luke/z-study/pipe_validation_z_10/system/blockMeshDict"
Creating block edges
No non-planar block faces defined
Creating topology blocks
Creating topology patches

Creating block mesh topology

Check topology

	Basic statistics
		Number of internal faces : 1
		Number of boundary faces : 10
		Number of defined boundary faces : 10
		Number of undefined boundary faces : 0
	Checking patch -> block consistency

Creating block offsets
Creating merge list .

Creating polyMesh from blockMesh
Creating points with scale 1
    Block 0 cell size :
        i : 0.12 .. 0.12
        j : 0.0166667 .. 0.0166667
        k : 0.015 .. 0.015
    Block 1 cell size :
        i : 0.45 .. 0.45
        j : 0.0166667 .. 0.0166667
        k : 0.015 .. 0.015
Creating cells
Creating patches

There are no merge patch pairs edges

Writing polyMesh
----------------
Mesh Information
----------------
  boundingBox: (0 0 -0.15) (19.2 0.2 0)
  nPoints: 7293
  nCells: 6000
  nFaces: 19220
  nInternalFaces: 16780
----------------
Patches
----------------
  patch 0 (start: 16780 size: 500) name: upperWall
  patch 1 (start: 17280 size: 100) name: lowerWall
  patch 2 (start: 17380 size: 400) name: heatedWall
  patch 3 (start: 17780 size: 120) name: inlet
  patch 4 (start: 17900 size: 120) name: outlet
  patch 5 (start: 18020 size: 1200) name: frontAndBack

End

