/*---------------------------------------------------------------------------*\
  =========                 |
  \\      /  F ield         | OpenFOAM: The Open Source CFD Toolbox
   \\    /   O peration     | Website:  https://openfoam.org
    \\  /    A nd           | Version:  7
     \\/     M anipulation  |
\*---------------------------------------------------------------------------*/
Build  : 7-49b2b3b8b082
Exec   : blockMesh
Date   : Apr 17 2023
Time   : 09:29:57
Host   : "c404-084.stampede2.tacc.utexas.edu"
PID    : 223759
I/O    : uncollated
Case   : /work2/08376/lew2547/stampede2/CooliestModel/src/CFD/ConvergenceStudy-luke/z-study/pipe_validation_z_20
nProcs : 1
sigFpe : Enabling floating point exception trapping (FOAM_SIGFPE).
fileModificationChecking : Monitoring run-time modified files using timeStampMaster (fileModificationSkew 10)
allowSystemOperations : Allowing user-supplied system call operations

// * * * * * * * * * * * * * * * * * * * * * * * * * * * * * * * * * * * * * //
Create time

Deleting polyMesh directory
    "/work2/08376/lew2547/stampede2/CooliestModel/src/CFD/ConvergenceStudy-luke/z-study/pipe_validation_z_20/constant/polyMesh"
Creating block mesh from
    "/work2/08376/lew2547/stampede2/CooliestModel/src/CFD/ConvergenceStudy-luke/z-study/pipe_validation_z_20/system/blockMeshDict"
Creating block edges
No non-planar block faces defined
Creating topology blocks
Creating topology patches

Creating block mesh topology

Check topology

	Basic statistics
		Number of internal faces : 1
		Number of boundary faces : 10
		Number of defined boundary faces : 10
		Number of undefined boundary faces : 0
	Checking patch -> block consistency

Creating block offsets
Creating merge list .

Creating polyMesh from blockMesh
Creating points with scale 1
    Block 0 cell size :
        i : 0.12 .. 0.12
        j : 0.0166667 .. 0.0166667
        k : 0.0075
    Block 1 cell size :
        i : 0.45 .. 0.45
        j : 0.0166667 .. 0.0166667
        k : 0.0075
Creating cells
Creating patches

There are no merge patch pairs edges

Writing polyMesh
----------------
Mesh Information
----------------
  boundingBox: (0 0 -0.15) (19.2 0.2 0)
  nPoints: 13923
  nCells: 12000
  nFaces: 37840
  nInternalFaces: 34160
----------------
Patches
----------------
  patch 0 (start: 34160 size: 1000) name: upperWall
  patch 1 (start: 35160 size: 200) name: lowerWall
  patch 2 (start: 35360 size: 800) name: heatedWall
  patch 3 (start: 36160 size: 240) name: inlet
  patch 4 (start: 36400 size: 240) name: outlet
  patch 5 (start: 36640 size: 1200) name: frontAndBack

End

