/*---------------------------------------------------------------------------*\
  =========                 |
  \\      /  F ield         | OpenFOAM: The Open Source CFD Toolbox
   \\    /   O peration     | Website:  https://openfoam.org
    \\  /    A nd           | Version:  7
     \\/     M anipulation  |
\*---------------------------------------------------------------------------*/
Build  : 7-49b2b3b8b082
Exec   : rhoPimpleFoam
Date   : Apr 07 2023
Time   : 00:30:54
Host   : "c404-093.stampede2.tacc.utexas.edu"
PID    : 182741
I/O    : uncollated
Case   : /home1/08376/lew2547/seniordesign/CooliestModel/src/CFD/pipe_validation_refine_power5040
nProcs : 1
sigFpe : Enabling floating point exception trapping (FOAM_SIGFPE).
fileModificationChecking : Monitoring run-time modified files using timeStampMaster (fileModificationSkew 10)
allowSystemOperations : Allowing user-supplied system call operations

// * * * * * * * * * * * * * * * * * * * * * * * * * * * * * * * * * * * * * //
Create time

Create mesh for time = 0


PIMPLE: No convergence criteria found


PIMPLE: No corrector convergence criteria found
        Calculations will do 3 corrections


PIMPLE: Operating solver in transient mode with 3 outer correctors


Reading thermophysical properties

Selecting thermodynamics package 
{
    type            hePsiThermo;
    mixture         pureMixture;
    transport       const;
    thermo          eConst;
    equationOfState perfectGas;
    specie          specie;
    energy          sensibleInternalEnergy;
}

Reading field U

Reading/calculating face flux field phi

pressureControl
    pMax 200000
    pMin 50000

Creating turbulence model

Selecting turbulence model type LES
Selecting LES turbulence model kEqn
Selecting LES delta type cubeRootVol
--> FOAM Warning : 
    From function void Foam::LESModels::cubeRootVolDelta::calcDelta()
    in file LES/LESdeltas/cubeRootVolDelta/cubeRootVolDelta.C at line 55
    Case is 2D, LES is not strictly applicable

bounding k, min: 0 max: 2e-05 average: 0
LES
{
    LESModel        kEqn;
    turbulence      on;
    printCoeffs     on;
    delta           cubeRootVol;
    cubeRootVolCoeffs
    {
        deltaCoeff      1;
    }
    PrandtlCoeffs
    {
        delta           cubeRootVol;
        cubeRootVolCoeffs
        {
            deltaCoeff      1;
        }
        smoothCoeffs
        {
            delta           cubeRootVol;
            cubeRootVolCoeffs
            {
                deltaCoeff      1;
            }
            maxDeltaRatio   1.1;
        }
        Cdelta          0.158;
    }
    vanDriestCoeffs
    {
        delta           cubeRootVol;
        cubeRootVolCoeffs
        {
            deltaCoeff      1;
        }
        smoothCoeffs
        {
            delta           cubeRootVol;
            cubeRootVolCoeffs
            {
                deltaCoeff      1;
            }
            maxDeltaRatio   1.1;
        }
        Aplus           26;
        Cdelta          0.158;
    }
    smoothCoeffs
    {
        delta           cubeRootVol;
        cubeRootVolCoeffs
        {
            deltaCoeff      1;
        }
        maxDeltaRatio   1.1;
    }
    Ce              1.048;
    Ck              0.094;
}

Creating field dpdt

Creating field kinetic energy K

No MRF models present

No finite volume options present
Courant Number mean: 0.000625 max: 0.15

Starting time loop

Courant Number mean: 0.000625 max: 0.15
Time = 0.005

PIMPLE: Iteration 1
diagonal:  Solving for rho, Initial residual = 0, Final residual = 0, No Iterations 0
smoothSolver:  Solving for Ux, Initial residual = 1, Final residual = 9.31265e-07, No Iterations 1
smoothSolver:  Solving for Uy, Initial residual = 1, Final residual = 4.85497e-07, No Iterations 1
smoothSolver:  Solving for e, Initial residual = 1, Final residual = 2.32624e-06, No Iterations 1
DICPCG:  Solving for p, Initial residual = 1, Final residual = 5.57637e-07, No Iterations 210
diagonal:  Solving for rho, Initial residual = 0, Final residual = 0, No Iterations 0
time step continuity errors : sum local = 7.67415e-10, global = 6.39757e-12, cumulative = 6.39757e-12
PIMPLE: Iteration 2
smoothSolver:  Solving for Ux, Initial residual = 0.121012, Final residual = 0.000676705, No Iterations 1
smoothSolver:  Solving for Uy, Initial residual = 0.371398, Final residual = 0.000214438, No Iterations 1
smoothSolver:  Solving for e, Initial residual = 0.591046, Final residual = 0.00124572, No Iterations 1
DICPCG:  Solving for p, Initial residual = 0.0961702, Final residual = 9.0122e-07, No Iterations 141
diagonal:  Solving for rho, Initial residual = 0, Final residual = 0, No Iterations 0
time step continuity errors : sum local = 4.2316e-09, global = -6.44919e-11, cumulative = -5.80943e-11
PIMPLE: Iteration 3
smoothSolver:  Solving for Ux, Initial residual = 0.00381754, Final residual = 3.48476e-08, No Iterations 2
smoothSolver:  Solving for Uy, Initial residual = 0.0122978, Final residual = 6.4687e-08, No Iterations 2
smoothSolver:  Solving for e, Initial residual = 0.352278, Final residual = 4.32743e-09, No Iterations 3
DICPCG:  Solving for p, Initial residual = 0.113316, Final residual = 9.43376e-07, No Iterations 142
diagonal:  Solving for rho, Initial residual = 0, Final residual = 0, No Iterations 0
time step continuity errors : sum local = 4.25494e-09, global = 2.23396e-10, cumulative = 1.65302e-10
smoothSolver:  Solving for k, Initial residual = 0.962606, Final residual = 7.47245e-07, No Iterations 3
bounding k, min: 0 max: 0.00103644 average: 4.59527e-07
ExecutionTime = 0.69 s  ClockTime = 1 s

Courant Number mean: 0.0213182 max: 0.308231
Time = 0.01

PIMPLE: Iteration 1
diagonal:  Solving for rho, Initial residual = 0, Final residual = 0, No Iterations 0
smoothSolver:  Solving for Ux, Initial residual = 0.312467, Final residual = 0.000939552, No Iterations 1
smoothSolver:  Solving for Uy, Initial residual = 0.660435, Final residual = 0.000196173, No Iterations 1
smoothSolver:  Solving for e, Initial residual = 0.34067, Final residual = 0.000787522, No Iterations 1
DICPCG:  Solving for p, Initial residual = 0.639848, Final residual = 9.73284e-07, No Iterations 164
diagonal:  Solving for rho, Initial residual = 0, Final residual = 0, No Iterations 0
time step continuity errors : sum local = 5.67191e-09, global = 3.30353e-10, cumulative = 4.95655e-10
PIMPLE: Iteration 2
smoothSolver:  Solving for Ux, Initial residual = 0.00535315, Final residual = 4.1978e-05, No Iterations 1
smoothSolver:  Solving for Uy, Initial residual = 0.0107141, Final residual = 5.58318e-05, No Iterations 1
smoothSolver:  Solving for e, Initial residual = 0.137796, Final residual = 0.000816516, No Iterations 1
DICPCG:  Solving for p, Initial residual = 0.0465614, Final residual = 9.69549e-07, No Iterations 135
diagonal:  Solving for rho, Initial residual = 0, Final residual = 0, No Iterations 0
time step continuity errors : sum local = 9.38768e-09, global = 7.10585e-10, cumulative = 1.20624e-09
PIMPLE: Iteration 3
smoothSolver:  Solving for Ux, Initial residual = 0.00136176, Final residual = 5.67963e-08, No Iterations 2
smoothSolver:  Solving for Uy, Initial residual = 0.00120975, Final residual = 4.65041e-08, No Iterations 2
smoothSolver:  Solving for e, Initial residual = 0.0341179, Final residual = 1.45915e-08, No Iterations 3
DICPCG:  Solving for p, Initial residual = 0.0110162, Final residual = 9.67648e-07, No Iterations 115
diagonal:  Solving for rho, Initial residual = 0, Final residual = 0, No Iterations 0
time step continuity errors : sum local = 9.3292e-09, global = -7.18241e-10, cumulative = 4.87998e-10
smoothSolver:  Solving for k, Initial residual = 0.945327, Final residual = 3.9782e-07, No Iterations 3
bounding k, min: 0 max: 0.0318323 average: 3.19246e-05
ExecutionTime = 0.95 s  ClockTime = 1 s

Courant Number mean: 0.0464338 max: 0.318477
Time = 0.015

PIMPLE: Iteration 1
diagonal:  Solving for rho, Initial residual = 0, Final residual = 0, No Iterations 0
smoothSolver:  Solving for Ux, Initial residual = 0.199268, Final residual = 0.000713881, No Iterations 1
smoothSolver:  Solving for Uy, Initial residual = 0.544462, Final residual = 0.000516578, No Iterations 1
smoothSolver:  Solving for e, Initial residual = 0.214926, Final residual = 0.000600322, No Iterations 1
DICPCG:  Solving for p, Initial residual = 0.260523, Final residual = 9.29092e-07, No Iterations 153
diagonal:  Solving for rho, Initial residual = 0, Final residual = 0, No Iterations 0
time step continuity errors : sum local = 9.74201e-09, global = 4.15965e-10, cumulative = 9.03964e-10
PIMPLE: Iteration 2
smoothSolver:  Solving for Ux, Initial residual = 0.00315517, Final residual = 2.54193e-05, No Iterations 1
smoothSolver:  Solving for Uy, Initial residual = 0.00779285, Final residual = 5.37274e-05, No Iterations 1
smoothSolver:  Solving for e, Initial residual = 0.0817656, Final residual = 0.000480381, No Iterations 1
DICPCG:  Solving for p, Initial residual = 0.02617, Final residual = 9.68613e-07, No Iterations 126
diagonal:  Solving for rho, Initial residual = 0, Final residual = 0, No Iterations 0
time step continuity errors : sum local = 1.31162e-08, global = 1.21805e-09, cumulative = 2.12202e-09
PIMPLE: Iteration 3
smoothSolver:  Solving for Ux, Initial residual = 0.000646135, Final residual = 3.6627e-08, No Iterations 2
smoothSolver:  Solving for Uy, Initial residual = 0.00163742, Final residual = 1.18364e-07, No Iterations 2
smoothSolver:  Solving for e, Initial residual = 0.0162152, Final residual = 9.89586e-07, No Iterations 2
DICPCG:  Solving for p, Initial residual = 0.00527461, Final residual = 9.96065e-07, No Iterations 104
diagonal:  Solving for rho, Initial residual = 0, Final residual = 0, No Iterations 0
time step continuity errors : sum local = 1.33408e-08, global = -3.77161e-10, cumulative = 1.74486e-09
smoothSolver:  Solving for k, Initial residual = 0.845819, Final residual = 5.82656e-07, No Iterations 3
bounding k, min: 0 max: 0.343017 average: 0.000714793
ExecutionTime = 1.21 s  ClockTime = 2 s

Courant Number mean: 0.074142 max: 0.323303
Time = 0.02

PIMPLE: Iteration 1
diagonal:  Solving for rho, Initial residual = 0, Final residual = 0, No Iterations 0
smoothSolver:  Solving for Ux, Initial residual = 0.160978, Final residual = 0.000620876, No Iterations 1
smoothSolver:  Solving for Uy, Initial residual = 0.0879497, Final residual = 0.000229003, No Iterations 1
smoothSolver:  Solving for e, Initial residual = 0.164023, Final residual = 0.000536669, No Iterations 1
DICPCG:  Solving for p, Initial residual = 0.169944, Final residual = 8.78071e-07, No Iterations 145
diagonal:  Solving for rho, Initial residual = 0, Final residual = 0, No Iterations 0
time step continuity errors : sum local = 1.25155e-08, global = 2.38579e-10, cumulative = 1.98344e-09
PIMPLE: Iteration 2
smoothSolver:  Solving for Ux, Initial residual = 0.0025103, Final residual = 2.07305e-05, No Iterations 1
smoothSolver:  Solving for Uy, Initial residual = 0.0076863, Final residual = 5.93333e-05, No Iterations 1
smoothSolver:  Solving for e, Initial residual = 0.0588401, Final residual = 0.000369775, No Iterations 1
DICPCG:  Solving for p, Initial residual = 0.0186096, Final residual = 9.0666e-07, No Iterations 120
diagonal:  Solving for rho, Initial residual = 0, Final residual = 0, No Iterations 0
time step continuity errors : sum local = 1.52556e-08, global = 1.36431e-09, cumulative = 3.34774e-09
PIMPLE: Iteration 3
smoothSolver:  Solving for Ux, Initial residual = 0.000507445, Final residual = 3.41844e-08, No Iterations 2
smoothSolver:  Solving for Uy, Initial residual = 0.00216144, Final residual = 1.61328e-07, No Iterations 2
smoothSolver:  Solving for e, Initial residual = 0.0101282, Final residual = 7.28377e-07, No Iterations 2
DICPCG:  Solving for p, Initial residual = 0.00341272, Final residual = 9.45091e-07, No Iterations 97
diagonal:  Solving for rho, Initial residual = 0, Final residual = 0, No Iterations 0
time step continuity errors : sum local = 1.57513e-08, global = -2.93482e-10, cumulative = 3.05426e-09
smoothSolver:  Solving for k, Initial residual = 0.669803, Final residual = 4.88283e-07, No Iterations 3
bounding k, min: 0 max: 1.32186 average: 0.00633437
ExecutionTime = 1.88 s  ClockTime = 2 s

Courant Number mean: 0.102929 max: 0.340102
Time = 0.025

PIMPLE: Iteration 1
diagonal:  Solving for rho, Initial residual = 0, Final residual = 0, No Iterations 0
smoothSolver:  Solving for Ux, Initial residual = 0.143813, Final residual = 0.000570052, No Iterations 1
smoothSolver:  Solving for Uy, Initial residual = 0.114871, Final residual = 0.000625336, No Iterations 1
smoothSolver:  Solving for e, Initial residual = 0.140111, Final residual = 0.000510015, No Iterations 1
DICPCG:  Solving for p, Initial residual = 0.134346, Final residual = 8.64047e-07, No Iterations 138
diagonal:  Solving for rho, Initial residual = 0, Final residual = 0, No Iterations 0
time step continuity errors : sum local = 1.49373e-08, global = -2.52954e-10, cumulative = 2.8013e-09
PIMPLE: Iteration 2
smoothSolver:  Solving for Ux, Initial residual = 0.00224148, Final residual = 1.84724e-05, No Iterations 1
smoothSolver:  Solving for Uy, Initial residual = 0.00944875, Final residual = 6.95815e-05, No Iterations 1
smoothSolver:  Solving for e, Initial residual = 0.0483716, Final residual = 0.000306021, No Iterations 1
DICPCG:  Solving for p, Initial residual = 0.0153737, Final residual = 9.26613e-07, No Iterations 113
diagonal:  Solving for rho, Initial residual = 0, Final residual = 0, No Iterations 0
time step continuity errors : sum local = 1.76967e-08, global = 1.7357e-09, cumulative = 4.53701e-09
PIMPLE: Iteration 3
smoothSolver:  Solving for Ux, Initial residual = 0.000437738, Final residual = 3.01592e-08, No Iterations 2
smoothSolver:  Solving for Uy, Initial residual = 0.00302076, Final residual = 2.21498e-07, No Iterations 2
smoothSolver:  Solving for e, Initial residual = 0.00704583, Final residual = 5.05736e-07, No Iterations 2
DICPCG:  Solving for p, Initial residual = 0.00233935, Final residual = 9.94952e-07, No Iterations 90
diagonal:  Solving for rho, Initial residual = 0, Final residual = 0, No Iterations 0
time step continuity errors : sum local = 1.88321e-08, global = -7.87841e-10, cumulative = 3.74917e-09
smoothSolver:  Solving for k, Initial residual = 0.437785, Final residual = 2.18859e-07, No Iterations 3
bounding k, min: 0 max: 2.44571 average: 0.0247223
ExecutionTime = 2.11 s  ClockTime = 3 s

Courant Number mean: 0.132061 max: 0.377282
Time = 0.03

PIMPLE: Iteration 1
diagonal:  Solving for rho, Initial residual = 0, Final residual = 0, No Iterations 0
smoothSolver:  Solving for Ux, Initial residual = 0.140938, Final residual = 0.000569445, No Iterations 1
smoothSolver:  Solving for Uy, Initial residual = 0.161276, Final residual = 0.00103844, No Iterations 1
smoothSolver:  Solving for e, Initial residual = 0.128246, Final residual = 0.000491554, No Iterations 1
DICPCG:  Solving for p, Initial residual = 0.1169, Final residual = 8.34568e-07, No Iterations 131
diagonal:  Solving for rho, Initial residual = 0, Final residual = 0, No Iterations 0
time step continuity errors : sum local = 1.6103e-08, global = -4.39244e-10, cumulative = 3.30992e-09
PIMPLE: Iteration 2
smoothSolver:  Solving for Ux, Initial residual = 0.00223449, Final residual = 1.76533e-05, No Iterations 1
smoothSolver:  Solving for Uy, Initial residual = 0.0115253, Final residual = 8.23604e-05, No Iterations 1
smoothSolver:  Solving for e, Initial residual = 0.0436913, Final residual = 0.000279512, No Iterations 1
DICPCG:  Solving for p, Initial residual = 0.0136851, Final residual = 9.00282e-07, No Iterations 107
diagonal:  Solving for rho, Initial residual = 0, Final residual = 0, No Iterations 0
time step continuity errors : sum local = 1.83087e-08, global = 2.95776e-09, cumulative = 6.26769e-09
PIMPLE: Iteration 3
smoothSolver:  Solving for Ux, Initial residual = 0.000423606, Final residual = 2.85905e-08, No Iterations 2
smoothSolver:  Solving for Uy, Initial residual = 0.00335711, Final residual = 2.35084e-07, No Iterations 2
smoothSolver:  Solving for e, Initial residual = 0.00575961, Final residual = 4.2415e-07, No Iterations 2
DICPCG:  Solving for p, Initial residual = 0.00187485, Final residual = 9.5834e-07, No Iterations 90
diagonal:  Solving for rho, Initial residual = 0, Final residual = 0, No Iterations 0
time step continuity errors : sum local = 1.93195e-08, global = -8.7489e-10, cumulative = 5.3928e-09
smoothSolver:  Solving for k, Initial residual = 0.256061, Final residual = 9.41771e-08, No Iterations 3
bounding k, min: 0 max: 2.9479 average: 0.0556652
ExecutionTime = 2.35 s  ClockTime = 3 s

Courant Number mean: 0.161064 max: 0.417882
Time = 0.035

PIMPLE: Iteration 1
diagonal:  Solving for rho, Initial residual = 0, Final residual = 0, No Iterations 0
smoothSolver:  Solving for Ux, Initial residual = 0.147914, Final residual = 0.000612528, No Iterations 1
smoothSolver:  Solving for Uy, Initial residual = 0.157101, Final residual = 0.00109273, No Iterations 1
smoothSolver:  Solving for e, Initial residual = 0.123356, Final residual = 0.000559166, No Iterations 1
DICPCG:  Solving for p, Initial residual = 0.109023, Final residual = 9.93857e-07, No Iterations 122
diagonal:  Solving for rho, Initial residual = 0, Final residual = 0, No Iterations 0
time step continuity errors : sum local = 2.01306e-08, global = -3.308e-11, cumulative = 5.35972e-09
PIMPLE: Iteration 2
smoothSolver:  Solving for Ux, Initial residual = 0.00237189, Final residual = 1.79015e-05, No Iterations 1
smoothSolver:  Solving for Uy, Initial residual = 0.011647, Final residual = 8.58845e-05, No Iterations 1
smoothSolver:  Solving for e, Initial residual = 0.0414005, Final residual = 0.000272796, No Iterations 1
DICPCG:  Solving for p, Initial residual = 0.0128752, Final residual = 9.59143e-07, No Iterations 105
diagonal:  Solving for rho, Initial residual = 0, Final residual = 0, No Iterations 0
time step continuity errors : sum local = 1.97015e-08, global = -3.17562e-10, cumulative = 5.04215e-09
PIMPLE: Iteration 3
smoothSolver:  Solving for Ux, Initial residual = 0.00044189, Final residual = 2.87375e-08, No Iterations 2
smoothSolver:  Solving for Uy, Initial residual = 0.00338125, Final residual = 2.33457e-07, No Iterations 2
smoothSolver:  Solving for e, Initial residual = 0.00509687, Final residual = 3.90421e-07, No Iterations 2
DICPCG:  Solving for p, Initial residual = 0.00163408, Final residual = 8.66678e-07, No Iterations 86
diagonal:  Solving for rho, Initial residual = 0, Final residual = 0, No Iterations 0
time step continuity errors : sum local = 1.7647e-08, global = -6.61887e-10, cumulative = 4.38027e-09
smoothSolver:  Solving for k, Initial residual = 0.148848, Final residual = 4.67324e-08, No Iterations 3
bounding k, min: 0 max: 2.83545 average: 0.0910836
ExecutionTime = 2.59 s  ClockTime = 3 s

Courant Number mean: 0.189832 max: 0.456985
Time = 0.04

PIMPLE: Iteration 1
diagonal:  Solving for rho, Initial residual = 0, Final residual = 0, No Iterations 0
smoothSolver:  Solving for Ux, Initial residual = 0.160884, Final residual = 0.000698166, No Iterations 1
smoothSolver:  Solving for Uy, Initial residual = 0.145284, Final residual = 0.00106241, No Iterations 1
smoothSolver:  Solving for e, Initial residual = 0.123217, Final residual = 0.000679712, No Iterations 1
DICPCG:  Solving for p, Initial residual = 0.106413, Final residual = 8.99301e-07, No Iterations 124
diagonal:  Solving for rho, Initial residual = 0, Final residual = 0, No Iterations 0
time step continuity errors : sum local = 1.81432e-08, global = 2.20113e-10, cumulative = 4.60038e-09
PIMPLE: Iteration 2
smoothSolver:  Solving for Ux, Initial residual = 0.00263529, Final residual = 1.96726e-05, No Iterations 1
smoothSolver:  Solving for Uy, Initial residual = 0.0110734, Final residual = 8.3e-05, No Iterations 1
smoothSolver:  Solving for e, Initial residual = 0.0399015, Final residual = 0.000285023, No Iterations 1
DICPCG:  Solving for p, Initial residual = 0.0124683, Final residual = 9.11563e-07, No Iterations 101
diagonal:  Solving for rho, Initial residual = 0, Final residual = 0, No Iterations 0
time step continuity errors : sum local = 1.79918e-08, global = -1.7881e-09, cumulative = 2.81229e-09
PIMPLE: Iteration 3
smoothSolver:  Solving for Ux, Initial residual = 0.000482201, Final residual = 3.08467e-08, No Iterations 2
smoothSolver:  Solving for Uy, Initial residual = 0.00344532, Final residual = 2.43676e-07, No Iterations 2
smoothSolver:  Solving for e, Initial residual = 0.00477764, Final residual = 3.93458e-07, No Iterations 2
DICPCG:  Solving for p, Initial residual = 0.001535, Final residual = 8.86503e-07, No Iterations 84
diagonal:  Solving for rho, Initial residual = 0, Final residual = 0, No Iterations 0
time step continuity errors : sum local = 1.73486e-08, global = -3.38539e-10, cumulative = 2.47375e-09
smoothSolver:  Solving for k, Initial residual = 0.108125, Final residual = 3.54887e-08, No Iterations 3
bounding k, min: 0 max: 2.92206 average: 0.125634
ExecutionTime = 3.23 s  ClockTime = 4 s

Courant Number mean: 0.218383 max: 0.487621
Time = 0.045

PIMPLE: Iteration 1
diagonal:  Solving for rho, Initial residual = 0, Final residual = 0, No Iterations 0
smoothSolver:  Solving for Ux, Initial residual = 0.18108, Final residual = 0.000845445, No Iterations 1
smoothSolver:  Solving for Uy, Initial residual = 0.147382, Final residual = 0.0010956, No Iterations 1
smoothSolver:  Solving for e, Initial residual = 0.125737, Final residual = 0.000822342, No Iterations 1
DICPCG:  Solving for p, Initial residual = 0.106415, Final residual = 9.90068e-07, No Iterations 119
diagonal:  Solving for rho, Initial residual = 0, Final residual = 0, No Iterations 0
time step continuity errors : sum local = 1.89525e-08, global = 8.62924e-10, cumulative = 3.33667e-09
PIMPLE: Iteration 2
smoothSolver:  Solving for Ux, Initial residual = 0.00316396, Final residual = 2.37845e-05, No Iterations 1
smoothSolver:  Solving for Uy, Initial residual = 0.0108527, Final residual = 8.0916e-05, No Iterations 1
smoothSolver:  Solving for e, Initial residual = 0.037559, Final residual = 0.00030948, No Iterations 1
DICPCG:  Solving for p, Initial residual = 0.012052, Final residual = 9.78498e-07, No Iterations 104
diagonal:  Solving for rho, Initial residual = 0, Final residual = 0, No Iterations 0
time step continuity errors : sum local = 1.76996e-08, global = -6.34801e-11, cumulative = 3.27319e-09
PIMPLE: Iteration 3
smoothSolver:  Solving for Ux, Initial residual = 0.000548853, Final residual = 3.61429e-08, No Iterations 2
smoothSolver:  Solving for Uy, Initial residual = 0.00351693, Final residual = 2.61569e-07, No Iterations 2
smoothSolver:  Solving for e, Initial residual = 0.00471866, Final residual = 4.52807e-07, No Iterations 2
DICPCG:  Solving for p, Initial residual = 0.0015525, Final residual = 9.24981e-07, No Iterations 80
diagonal:  Solving for rho, Initial residual = 0, Final residual = 0, No Iterations 0
time step continuity errors : sum local = 1.6607e-08, global = 7.40988e-10, cumulative = 4.01418e-09
smoothSolver:  Solving for k, Initial residual = 0.109153, Final residual = 3.07326e-08, No Iterations 3
bounding k, min: 0 max: 3.04376 average: 0.159385
ExecutionTime = 3.46 s  ClockTime = 4 s

Courant Number mean: 0.246656 max: 0.509034
Time = 0.05

PIMPLE: Iteration 1
diagonal:  Solving for rho, Initial residual = 0, Final residual = 0, No Iterations 0
smoothSolver:  Solving for Ux, Initial residual = 0.214921, Final residual = 0.00110576, No Iterations 1
smoothSolver:  Solving for Uy, Initial residual = 0.149042, Final residual = 0.00112159, No Iterations 1
smoothSolver:  Solving for e, Initial residual = 0.126453, Final residual = 0.000980678, No Iterations 1
DICPCG:  Solving for p, Initial residual = 0.104874, Final residual = 9.1675e-07, No Iterations 124
diagonal:  Solving for rho, Initial residual = 0, Final residual = 0, No Iterations 0
time step continuity errors : sum local = 1.59516e-08, global = 7.57244e-10, cumulative = 4.77142e-09
PIMPLE: Iteration 2
smoothSolver:  Solving for Ux, Initial residual = 0.00413672, Final residual = 3.2031e-05, No Iterations 1
smoothSolver:  Solving for Uy, Initial residual = 0.011001, Final residual = 8.16669e-05, No Iterations 1
smoothSolver:  Solving for e, Initial residual = 0.032821, Final residual = 0.000322872, No Iterations 1
DICPCG:  Solving for p, Initial residual = 0.0116288, Final residual = 8.53278e-07, No Iterations 104
diagonal:  Solving for rho, Initial residual = 0, Final residual = 0, No Iterations 0
time step continuity errors : sum local = 1.36281e-08, global = -1.78733e-10, cumulative = 4.59269e-09
PIMPLE: Iteration 3
smoothSolver:  Solving for Ux, Initial residual = 0.000660627, Final residual = 4.7383e-08, No Iterations 2
smoothSolver:  Solving for Uy, Initial residual = 0.00369101, Final residual = 2.90069e-07, No Iterations 2
smoothSolver:  Solving for e, Initial residual = 0.00456025, Final residual = 5.06398e-07, No Iterations 2
DICPCG:  Solving for p, Initial residual = 0.00163174, Final residual = 9.24842e-07, No Iterations 82
diagonal:  Solving for rho, Initial residual = 0, Final residual = 0, No Iterations 0
time step continuity errors : sum local = 1.47045e-08, global = 1.39354e-09, cumulative = 5.98623e-09
smoothSolver:  Solving for k, Initial residual = 0.107815, Final residual = 3.1559e-08, No Iterations 3
bounding k, min: 0 max: 3.16836 average: 0.194984
ExecutionTime = 3.7 s  ClockTime = 4 s

Courant Number mean: 0.274444 max: 0.522625
Time = 0.055

PIMPLE: Iteration 1
diagonal:  Solving for rho, Initial residual = 0, Final residual = 0, No Iterations 0
smoothSolver:  Solving for Ux, Initial residual = 0.267298, Final residual = 0.00161386, No Iterations 1
smoothSolver:  Solving for Uy, Initial residual = 0.149852, Final residual = 0.00115052, No Iterations 1
smoothSolver:  Solving for e, Initial residual = 0.115072, Final residual = 0.00109848, No Iterations 1
DICPCG:  Solving for p, Initial residual = 0.0942082, Final residual = 9.72606e-07, No Iterations 125
diagonal:  Solving for rho, Initial residual = 0, Final residual = 0, No Iterations 0
time step continuity errors : sum local = 1.49099e-08, global = 5.83035e-10, cumulative = 6.56926e-09
PIMPLE: Iteration 2
smoothSolver:  Solving for Ux, Initial residual = 0.00554494, Final residual = 4.66596e-05, No Iterations 1
smoothSolver:  Solving for Uy, Initial residual = 0.0109651, Final residual = 8.39464e-05, No Iterations 1
smoothSolver:  Solving for e, Initial residual = 0.0296291, Final residual = 3.96366e-06, No Iterations 2
DICPCG:  Solving for p, Initial residual = 0.0125465, Final residual = 8.71646e-07, No Iterations 107
diagonal:  Solving for rho, Initial residual = 0, Final residual = 0, No Iterations 0
time step continuity errors : sum local = 1.21229e-08, global = -7.53184e-10, cumulative = 5.81608e-09
PIMPLE: Iteration 3
smoothSolver:  Solving for Ux, Initial residual = 0.000867596, Final residual = 7.21701e-08, No Iterations 2
smoothSolver:  Solving for Uy, Initial residual = 0.00397173, Final residual = 3.47804e-07, No Iterations 2
smoothSolver:  Solving for e, Initial residual = 0.00373631, Final residual = 5.0452e-07, No Iterations 2
DICPCG:  Solving for p, Initial residual = 0.00163075, Final residual = 9.22032e-07, No Iterations 82
diagonal:  Solving for rho, Initial residual = 0, Final residual = 0, No Iterations 0
time step continuity errors : sum local = 1.28319e-08, global = 4.03254e-10, cumulative = 6.21933e-09
smoothSolver:  Solving for k, Initial residual = 0.105936, Final residual = 3.42097e-08, No Iterations 3
bounding k, min: 0 max: 3.31934 average: 0.236709
ExecutionTime = 3.93 s  ClockTime = 4 s

Courant Number mean: 0.301438 max: 0.530502
Time = 0.06

PIMPLE: Iteration 1
diagonal:  Solving for rho, Initial residual = 0, Final residual = 0, No Iterations 0
smoothSolver:  Solving for Ux, Initial residual = 0.305964, Final residual = 0.00248345, No Iterations 1
smoothSolver:  Solving for Uy, Initial residual = 0.1456, Final residual = 0.00119561, No Iterations 1
smoothSolver:  Solving for e, Initial residual = 0.0858014, Final residual = 1.46397e-05, No Iterations 2
DICPCG:  Solving for p, Initial residual = 0.0691453, Final residual = 9.06583e-07, No Iterations 119
diagonal:  Solving for rho, Initial residual = 0, Final residual = 0, No Iterations 0
time step continuity errors : sum local = 1.21135e-08, global = 9.1501e-10, cumulative = 7.13434e-09
PIMPLE: Iteration 2
smoothSolver:  Solving for Ux, Initial residual = 0.00520718, Final residual = 5.18604e-05, No Iterations 1
smoothSolver:  Solving for Uy, Initial residual = 0.010801, Final residual = 8.80844e-05, No Iterations 1
smoothSolver:  Solving for e, Initial residual = 0.0301166, Final residual = 5.10323e-06, No Iterations 2
DICPCG:  Solving for p, Initial residual = 0.0153404, Final residual = 7.75473e-07, No Iterations 107
diagonal:  Solving for rho, Initial residual = 0, Final residual = 0, No Iterations 0
time step continuity errors : sum local = 9.5772e-09, global = -8.17072e-10, cumulative = 6.31727e-09
PIMPLE: Iteration 3
smoothSolver:  Solving for Ux, Initial residual = 0.00102671, Final residual = 1.16679e-07, No Iterations 2
smoothSolver:  Solving for Uy, Initial residual = 0.00332938, Final residual = 4.12084e-07, No Iterations 2
smoothSolver:  Solving for e, Initial residual = 0.00301855, Final residual = 4.72797e-07, No Iterations 2
DICPCG:  Solving for p, Initial residual = 0.00156073, Final residual = 9.31493e-07, No Iterations 83
diagonal:  Solving for rho, Initial residual = 0, Final residual = 0, No Iterations 0
time step continuity errors : sum local = 1.15852e-08, global = 2.20492e-10, cumulative = 6.53776e-09
smoothSolver:  Solving for k, Initial residual = 0.109612, Final residual = 5.67176e-08, No Iterations 3
bounding k, min: 0 max: 3.5979 average: 0.292534
ExecutionTime = 4.57 s  ClockTime = 5 s

Courant Number mean: 0.327322 max: 0.534637
Time = 0.065

PIMPLE: Iteration 1
diagonal:  Solving for rho, Initial residual = 0, Final residual = 0, No Iterations 0
smoothSolver:  Solving for Ux, Initial residual = 0.264623, Final residual = 3.8321e-05, No Iterations 2
smoothSolver:  Solving for Uy, Initial residual = 0.128826, Final residual = 0.00124488, No Iterations 1
smoothSolver:  Solving for e, Initial residual = 0.0627197, Final residual = 1.55702e-05, No Iterations 2
DICPCG:  Solving for p, Initial residual = 0.0495238, Final residual = 8.82951e-07, No Iterations 119
diagonal:  Solving for rho, Initial residual = 0, Final residual = 0, No Iterations 0
time step continuity errors : sum local = 1.05713e-08, global = -3.22885e-10, cumulative = 6.21488e-09
PIMPLE: Iteration 2
smoothSolver:  Solving for Ux, Initial residual = 0.00287463, Final residual = 4.8594e-07, No Iterations 2
smoothSolver:  Solving for Uy, Initial residual = 0.0115494, Final residual = 0.000109713, No Iterations 1
smoothSolver:  Solving for e, Initial residual = 0.0270174, Final residual = 7.82752e-06, No Iterations 2
DICPCG:  Solving for p, Initial residual = 0.0150786, Final residual = 9.72445e-07, No Iterations 98
diagonal:  Solving for rho, Initial residual = 0, Final residual = 0, No Iterations 0
time step continuity errors : sum local = 1.13432e-08, global = -7.99397e-10, cumulative = 5.41548e-09
PIMPLE: Iteration 3
smoothSolver:  Solving for Ux, Initial residual = 0.000757661, Final residual = 1.62232e-07, No Iterations 2
smoothSolver:  Solving for Uy, Initial residual = 0.00330634, Final residual = 7.24658e-07, No Iterations 2
smoothSolver:  Solving for e, Initial residual = 0.0027466, Final residual = 6.65277e-07, No Iterations 2
DICPCG:  Solving for p, Initial residual = 0.00161333, Final residual = 9.15673e-07, No Iterations 85
diagonal:  Solving for rho, Initial residual = 0, Final residual = 0, No Iterations 0
time step continuity errors : sum local = 1.08156e-08, global = 4.65982e-10, cumulative = 5.88146e-09
smoothSolver:  Solving for k, Initial residual = 0.113423, Final residual = 1.38827e-07, No Iterations 3
bounding k, min: 0 max: 4.66607 average: 0.36735
ExecutionTime = 4.81 s  ClockTime = 5 s

Courant Number mean: 0.351939 max: 0.536555
Time = 0.07

PIMPLE: Iteration 1
diagonal:  Solving for rho, Initial residual = 0, Final residual = 0, No Iterations 0
smoothSolver:  Solving for Ux, Initial residual = 0.188405, Final residual = 6.04335e-05, No Iterations 2
smoothSolver:  Solving for Uy, Initial residual = 0.115147, Final residual = 1.6374e-05, No Iterations 2
smoothSolver:  Solving for e, Initial residual = 0.0665344, Final residual = 2.29986e-05, No Iterations 2
DICPCG:  Solving for p, Initial residual = 0.0816804, Final residual = 8.06186e-07, No Iterations 113
diagonal:  Solving for rho, Initial residual = 0, Final residual = 0, No Iterations 0
time step continuity errors : sum local = 1.00371e-08, global = 1.72449e-12, cumulative = 5.88319e-09
PIMPLE: Iteration 2
smoothSolver:  Solving for Ux, Initial residual = 0.00302039, Final residual = 1.12489e-06, No Iterations 2
smoothSolver:  Solving for Uy, Initial residual = 0.0100701, Final residual = 2.94244e-06, No Iterations 2
smoothSolver:  Solving for e, Initial residual = 0.0190989, Final residual = 9.47091e-06, No Iterations 2
DICPCG:  Solving for p, Initial residual = 0.00973829, Final residual = 8.38238e-07, No Iterations 105
diagonal:  Solving for rho, Initial residual = 0, Final residual = 0, No Iterations 0
time step continuity errors : sum local = 1.09332e-08, global = -1.86902e-10, cumulative = 5.69628e-09
PIMPLE: Iteration 3
smoothSolver:  Solving for Ux, Initial residual = 0.000464569, Final residual = 1.80734e-07, No Iterations 2
smoothSolver:  Solving for Uy, Initial residual = 0.0027467, Final residual = 8.24952e-07, No Iterations 2
smoothSolver:  Solving for e, Initial residual = 0.0022553, Final residual = 9.74513e-07, No Iterations 2
DICPCG:  Solving for p, Initial residual = 0.00131216, Final residual = 9.60913e-07, No Iterations 84
diagonal:  Solving for rho, Initial residual = 0, Final residual = 0, No Iterations 0
time step continuity errors : sum local = 1.26036e-08, global = 1.02616e-09, cumulative = 6.72245e-09
smoothSolver:  Solving for k, Initial residual = 0.094777, Final residual = 1.43218e-07, No Iterations 3
bounding k, min: 0 max: 8.0411 average: 0.447889
ExecutionTime = 5.04 s  ClockTime = 6 s

Courant Number mean: 0.375637 max: 0.588942
Time = 0.075

PIMPLE: Iteration 1
diagonal:  Solving for rho, Initial residual = 0, Final residual = 0, No Iterations 0
smoothSolver:  Solving for Ux, Initial residual = 0.135657, Final residual = 7.29085e-05, No Iterations 2
smoothSolver:  Solving for Uy, Initial residual = 0.136479, Final residual = 3.92779e-05, No Iterations 2
smoothSolver:  Solving for e, Initial residual = 0.0753164, Final residual = 4.36212e-05, No Iterations 2
DICPCG:  Solving for p, Initial residual = 0.103368, Final residual = 8.6469e-07, No Iterations 121
diagonal:  Solving for rho, Initial residual = 0, Final residual = 0, No Iterations 0
time step continuity errors : sum local = 1.22537e-08, global = -3.6323e-10, cumulative = 6.35922e-09
PIMPLE: Iteration 2
smoothSolver:  Solving for Ux, Initial residual = 0.0034551, Final residual = 2.10432e-06, No Iterations 2
smoothSolver:  Solving for Uy, Initial residual = 0.00661901, Final residual = 2.0779e-06, No Iterations 2
smoothSolver:  Solving for e, Initial residual = 0.0113295, Final residual = 6.52776e-06, No Iterations 2
DICPCG:  Solving for p, Initial residual = 0.00535036, Final residual = 9.87421e-07, No Iterations 98
diagonal:  Solving for rho, Initial residual = 0, Final residual = 0, No Iterations 0
time step continuity errors : sum local = 1.4997e-08, global = -1.23108e-10, cumulative = 6.23611e-09
PIMPLE: Iteration 3
smoothSolver:  Solving for Ux, Initial residual = 0.000239822, Final residual = 1.14765e-07, No Iterations 2
smoothSolver:  Solving for Uy, Initial residual = 0.00266485, Final residual = 3.6121e-08, No Iterations 3
smoothSolver:  Solving for e, Initial residual = 0.00183137, Final residual = 3.79991e-08, No Iterations 3
DICPCG:  Solving for p, Initial residual = 0.000972877, Final residual = 9.6441e-07, No Iterations 82
diagonal:  Solving for rho, Initial residual = 0, Final residual = 0, No Iterations 0
time step continuity errors : sum local = 1.4629e-08, global = 9.95828e-10, cumulative = 7.23194e-09
smoothSolver:  Solving for k, Initial residual = 0.0579218, Final residual = 2.68369e-07, No Iterations 3
bounding k, min: 0 max: 9.49278 average: 0.518568
ExecutionTime = 5.27 s  ClockTime = 6 s

Courant Number mean: 0.39922 max: 0.665828
Time = 0.08

PIMPLE: Iteration 1
diagonal:  Solving for rho, Initial residual = 0, Final residual = 0, No Iterations 0
smoothSolver:  Solving for Ux, Initial residual = 0.110343, Final residual = 7.24345e-05, No Iterations 2
smoothSolver:  Solving for Uy, Initial residual = 0.117535, Final residual = 5.80844e-05, No Iterations 2
smoothSolver:  Solving for e, Initial residual = 0.074447, Final residual = 5.45532e-05, No Iterations 2
DICPCG:  Solving for p, Initial residual = 0.10676, Final residual = 9.69462e-07, No Iterations 121
diagonal:  Solving for rho, Initial residual = 0, Final residual = 0, No Iterations 0
time step continuity errors : sum local = 1.55828e-08, global = -5.40675e-10, cumulative = 6.69126e-09
PIMPLE: Iteration 2
smoothSolver:  Solving for Ux, Initial residual = 0.0032103, Final residual = 2.35608e-06, No Iterations 2
smoothSolver:  Solving for Uy, Initial residual = 0.00971526, Final residual = 4.39413e-06, No Iterations 2
smoothSolver:  Solving for e, Initial residual = 0.0120863, Final residual = 9.66834e-06, No Iterations 2
DICPCG:  Solving for p, Initial residual = 0.00660137, Final residual = 9.18056e-07, No Iterations 101
diagonal:  Solving for rho, Initial residual = 0, Final residual = 0, No Iterations 0
time step continuity errors : sum local = 1.55115e-08, global = -2.81522e-10, cumulative = 6.40974e-09
PIMPLE: Iteration 3
smoothSolver:  Solving for Ux, Initial residual = 0.000274579, Final residual = 1.50924e-07, No Iterations 2
smoothSolver:  Solving for Uy, Initial residual = 0.00355442, Final residual = 7.7827e-08, No Iterations 3
smoothSolver:  Solving for e, Initial residual = 0.00140273, Final residual = 5.15667e-08, No Iterations 3
DICPCG:  Solving for p, Initial residual = 0.000735154, Final residual = 9.74724e-07, No Iterations 74
diagonal:  Solving for rho, Initial residual = 0, Final residual = 0, No Iterations 0
time step continuity errors : sum local = 1.63773e-08, global = 1.48556e-09, cumulative = 7.8953e-09
smoothSolver:  Solving for k, Initial residual = 0.0605782, Final residual = 2.34895e-07, No Iterations 3
bounding k, min: 0 max: 8.70514 average: 0.580859
ExecutionTime = 5.92 s  ClockTime = 7 s

Courant Number mean: 0.423194 max: 0.701929
Time = 0.085

PIMPLE: Iteration 1
diagonal:  Solving for rho, Initial residual = 0, Final residual = 0, No Iterations 0
smoothSolver:  Solving for Ux, Initial residual = 0.0985647, Final residual = 6.44314e-05, No Iterations 2
smoothSolver:  Solving for Uy, Initial residual = 0.082104, Final residual = 4.86176e-05, No Iterations 2
smoothSolver:  Solving for e, Initial residual = 0.0666685, Final residual = 5.22611e-05, No Iterations 2
DICPCG:  Solving for p, Initial residual = 0.100693, Final residual = 8.671e-07, No Iterations 119
diagonal:  Solving for rho, Initial residual = 0, Final residual = 0, No Iterations 0
time step continuity errors : sum local = 1.50007e-08, global = -1.78503e-10, cumulative = 7.7168e-09
PIMPLE: Iteration 2
smoothSolver:  Solving for Ux, Initial residual = 0.00218081, Final residual = 1.7933e-06, No Iterations 2
smoothSolver:  Solving for Uy, Initial residual = 0.00945431, Final residual = 6.0997e-06, No Iterations 2
smoothSolver:  Solving for e, Initial residual = 0.0164336, Final residual = 1.97851e-05, No Iterations 2
DICPCG:  Solving for p, Initial residual = 0.00830661, Final residual = 9.41895e-07, No Iterations 100
diagonal:  Solving for rho, Initial residual = 0, Final residual = 0, No Iterations 0
time step continuity errors : sum local = 1.65278e-08, global = -1.26613e-09, cumulative = 6.45067e-09
PIMPLE: Iteration 3
smoothSolver:  Solving for Ux, Initial residual = 0.000359172, Final residual = 2.95746e-07, No Iterations 2
smoothSolver:  Solving for Uy, Initial residual = 0.00350622, Final residual = 9.27456e-08, No Iterations 3
smoothSolver:  Solving for e, Initial residual = 0.00120023, Final residual = 6.48059e-08, No Iterations 3
DICPCG:  Solving for p, Initial residual = 0.00074055, Final residual = 9.54806e-07, No Iterations 75
diagonal:  Solving for rho, Initial residual = 0, Final residual = 0, No Iterations 0
time step continuity errors : sum local = 1.66364e-08, global = 1.5592e-09, cumulative = 8.00986e-09
smoothSolver:  Solving for k, Initial residual = 0.0679748, Final residual = 2.87363e-07, No Iterations 3
bounding k, min: 0 max: 7.05229 average: 0.642451
ExecutionTime = 6.15 s  ClockTime = 7 s

Courant Number mean: 0.44714 max: 0.705768
Time = 0.09

PIMPLE: Iteration 1
diagonal:  Solving for rho, Initial residual = 0, Final residual = 0, No Iterations 0
smoothSolver:  Solving for Ux, Initial residual = 0.0927755, Final residual = 6.67216e-05, No Iterations 2
smoothSolver:  Solving for Uy, Initial residual = 0.0585305, Final residual = 2.83381e-05, No Iterations 2
smoothSolver:  Solving for e, Initial residual = 0.0574785, Final residual = 4.4235e-05, No Iterations 2
DICPCG:  Solving for p, Initial residual = 0.0933976, Final residual = 8.44198e-07, No Iterations 108
diagonal:  Solving for rho, Initial residual = 0, Final residual = 0, No Iterations 0
time step continuity errors : sum local = 1.47585e-08, global = -7.42874e-10, cumulative = 7.26699e-09
PIMPLE: Iteration 2
smoothSolver:  Solving for Ux, Initial residual = 0.00209483, Final residual = 1.67619e-06, No Iterations 2
smoothSolver:  Solving for Uy, Initial residual = 0.00658556, Final residual = 4.49422e-06, No Iterations 2
smoothSolver:  Solving for e, Initial residual = 0.0157861, Final residual = 2.15344e-05, No Iterations 2
DICPCG:  Solving for p, Initial residual = 0.00770189, Final residual = 9.16336e-07, No Iterations 96
diagonal:  Solving for rho, Initial residual = 0, Final residual = 0, No Iterations 0
time step continuity errors : sum local = 1.56129e-08, global = -1.28413e-09, cumulative = 5.98286e-09
PIMPLE: Iteration 3
smoothSolver:  Solving for Ux, Initial residual = 0.000320971, Final residual = 3.04692e-07, No Iterations 2
smoothSolver:  Solving for Uy, Initial residual = 0.00270987, Final residual = 7.88321e-08, No Iterations 3
smoothSolver:  Solving for e, Initial residual = 0.00136622, Final residual = 9.20147e-08, No Iterations 3
DICPCG:  Solving for p, Initial residual = 0.000857555, Final residual = 9.75245e-07, No Iterations 77
diagonal:  Solving for rho, Initial residual = 0, Final residual = 0, No Iterations 0
time step continuity errors : sum local = 1.65034e-08, global = 1.81667e-09, cumulative = 7.79953e-09
smoothSolver:  Solving for k, Initial residual = 0.0596671, Final residual = 2.92862e-07, No Iterations 3
bounding k, min: 0 max: 6.72657 average: 0.70604
ExecutionTime = 6.38 s  ClockTime = 7 s

Courant Number mean: 0.470331 max: 0.69546
Time = 0.095

PIMPLE: Iteration 1
diagonal:  Solving for rho, Initial residual = 0, Final residual = 0, No Iterations 0
smoothSolver:  Solving for Ux, Initial residual = 0.0866765, Final residual = 7.32733e-05, No Iterations 2
smoothSolver:  Solving for Uy, Initial residual = 0.0599633, Final residual = 3.37513e-05, No Iterations 2
smoothSolver:  Solving for e, Initial residual = 0.0509099, Final residual = 4.17191e-05, No Iterations 2
DICPCG:  Solving for p, Initial residual = 0.101913, Final residual = 7.51789e-07, No Iterations 111
diagonal:  Solving for rho, Initial residual = 0, Final residual = 0, No Iterations 0
time step continuity errors : sum local = 1.24716e-08, global = 6.45617e-10, cumulative = 8.44514e-09
PIMPLE: Iteration 2
smoothSolver:  Solving for Ux, Initial residual = 0.00244854, Final residual = 2.2966e-06, No Iterations 2
smoothSolver:  Solving for Uy, Initial residual = 0.00440594, Final residual = 2.68463e-06, No Iterations 2
smoothSolver:  Solving for e, Initial residual = 0.0133508, Final residual = 1.79974e-05, No Iterations 2
DICPCG:  Solving for p, Initial residual = 0.00718659, Final residual = 9.51638e-07, No Iterations 94
diagonal:  Solving for rho, Initial residual = 0, Final residual = 0, No Iterations 0
time step continuity errors : sum local = 1.47766e-08, global = -6.39261e-10, cumulative = 7.80588e-09
PIMPLE: Iteration 3
smoothSolver:  Solving for Ux, Initial residual = 0.000195757, Final residual = 1.64418e-07, No Iterations 2
smoothSolver:  Solving for Uy, Initial residual = 0.00209716, Final residual = 6.56201e-08, No Iterations 3
smoothSolver:  Solving for e, Initial residual = 0.0012547, Final residual = 9.01188e-08, No Iterations 3
DICPCG:  Solving for p, Initial residual = 0.000825816, Final residual = 9.85729e-07, No Iterations 80
diagonal:  Solving for rho, Initial residual = 0, Final residual = 0, No Iterations 0
time step continuity errors : sum local = 1.521e-08, global = 1.10454e-09, cumulative = 8.91042e-09
smoothSolver:  Solving for k, Initial residual = 0.0537563, Final residual = 2.64429e-07, No Iterations 3
bounding k, min: 0 max: 6.16462 average: 0.769094
ExecutionTime = 6.61 s  ClockTime = 7 s

Courant Number mean: 0.491856 max: 0.701161
Time = 0.1

PIMPLE: Iteration 1
diagonal:  Solving for rho, Initial residual = 0, Final residual = 0, No Iterations 0
smoothSolver:  Solving for Ux, Initial residual = 0.0760274, Final residual = 6.70896e-05, No Iterations 2
smoothSolver:  Solving for Uy, Initial residual = 0.0641075, Final residual = 4.25842e-05, No Iterations 2
smoothSolver:  Solving for e, Initial residual = 0.0529146, Final residual = 5.24975e-05, No Iterations 2
DICPCG:  Solving for p, Initial residual = 0.126753, Final residual = 6.58298e-07, No Iterations 110
diagonal:  Solving for rho, Initial residual = 0, Final residual = 0, No Iterations 0
time step continuity errors : sum local = 9.73543e-09, global = 7.53323e-10, cumulative = 9.66375e-09
PIMPLE: Iteration 2
smoothSolver:  Solving for Ux, Initial residual = 0.00269557, Final residual = 2.83606e-06, No Iterations 2
smoothSolver:  Solving for Uy, Initial residual = 0.00591689, Final residual = 4.21611e-06, No Iterations 2
smoothSolver:  Solving for e, Initial residual = 0.0110209, Final residual = 1.30171e-05, No Iterations 2
DICPCG:  Solving for p, Initial residual = 0.00757685, Final residual = 9.52138e-07, No Iterations 97
diagonal:  Solving for rho, Initial residual = 0, Final residual = 0, No Iterations 0
time step continuity errors : sum local = 1.25696e-08, global = -1.65569e-10, cumulative = 9.49818e-09
PIMPLE: Iteration 3
smoothSolver:  Solving for Ux, Initial residual = 0.000232876, Final residual = 2.11479e-07, No Iterations 2
smoothSolver:  Solving for Uy, Initial residual = 0.00304311, Final residual = 9.55927e-08, No Iterations 3
smoothSolver:  Solving for e, Initial residual = 0.00111748, Final residual = 7.88134e-08, No Iterations 3
DICPCG:  Solving for p, Initial residual = 0.000893279, Final residual = 9.69928e-07, No Iterations 72
diagonal:  Solving for rho, Initial residual = 0, Final residual = 0, No Iterations 0
time step continuity errors : sum local = 1.27301e-08, global = 1.3105e-09, cumulative = 1.08087e-08
smoothSolver:  Solving for k, Initial residual = 0.0488129, Final residual = 2.8954e-07, No Iterations 3
bounding k, min: -8.80423e-06 max: 5.55045 average: 0.82762
ExecutionTime = 7.25 s  ClockTime = 8 s

Courant Number mean: 0.510728 max: 0.710649
Time = 0.105

PIMPLE: Iteration 1
diagonal:  Solving for rho, Initial residual = 0, Final residual = 0, No Iterations 0
smoothSolver:  Solving for Ux, Initial residual = 0.0661091, Final residual = 5.92919e-05, No Iterations 2
smoothSolver:  Solving for Uy, Initial residual = 0.0602026, Final residual = 4.09923e-05, No Iterations 2
smoothSolver:  Solving for e, Initial residual = 0.0534911, Final residual = 5.63928e-05, No Iterations 2
DICPCG:  Solving for p, Initial residual = 0.151034, Final residual = 5.27956e-07, No Iterations 110
diagonal:  Solving for rho, Initial residual = 0, Final residual = 0, No Iterations 0
time step continuity errors : sum local = 6.4976e-09, global = 1.04414e-09, cumulative = 1.18528e-08
PIMPLE: Iteration 2
smoothSolver:  Solving for Ux, Initial residual = 0.00236069, Final residual = 2.59122e-06, No Iterations 2
smoothSolver:  Solving for Uy, Initial residual = 0.0064152, Final residual = 4.61953e-06, No Iterations 2
smoothSolver:  Solving for e, Initial residual = 0.0118661, Final residual = 1.52502e-05, No Iterations 2
DICPCG:  Solving for p, Initial residual = 0.0111539, Final residual = 9.67641e-07, No Iterations 99
diagonal:  Solving for rho, Initial residual = 0, Final residual = 0, No Iterations 0
time step continuity errors : sum local = 9.95691e-09, global = -6.85334e-10, cumulative = 1.11675e-08
PIMPLE: Iteration 3
smoothSolver:  Solving for Ux, Initial residual = 0.000317926, Final residual = 3.09249e-07, No Iterations 2
smoothSolver:  Solving for Uy, Initial residual = 0.00304456, Final residual = 9.29748e-08, No Iterations 3
smoothSolver:  Solving for e, Initial residual = 0.00101157, Final residual = 6.38477e-08, No Iterations 3
DICPCG:  Solving for p, Initial residual = 0.00114803, Final residual = 9.92999e-07, No Iterations 79
diagonal:  Solving for rho, Initial residual = 0, Final residual = 0, No Iterations 0
time step continuity errors : sum local = 1.01579e-08, global = 1.2885e-09, cumulative = 1.2456e-08
smoothSolver:  Solving for k, Initial residual = 0.0448993, Final residual = 3.14799e-07, No Iterations 3
bounding k, min: 0 max: 5.35771 average: 0.878542
ExecutionTime = 7.48 s  ClockTime = 8 s

Courant Number mean: 0.525909 max: 0.711362
Time = 0.11

PIMPLE: Iteration 1
diagonal:  Solving for rho, Initial residual = 0, Final residual = 0, No Iterations 0
smoothSolver:  Solving for Ux, Initial residual = 0.0567501, Final residual = 5.33049e-05, No Iterations 2
smoothSolver:  Solving for Uy, Initial residual = 0.0539349, Final residual = 3.51379e-05, No Iterations 2
smoothSolver:  Solving for e, Initial residual = 0.0506276, Final residual = 5.23247e-05, No Iterations 2
DICPCG:  Solving for p, Initial residual = 0.186908, Final residual = 9.1719e-07, No Iterations 113
diagonal:  Solving for rho, Initial residual = 0, Final residual = 0, No Iterations 0
time step continuity errors : sum local = 8.59172e-09, global = -4.71086e-10, cumulative = 1.19849e-08
PIMPLE: Iteration 2
smoothSolver:  Solving for Ux, Initial residual = 0.00207849, Final residual = 2.21311e-06, No Iterations 2
smoothSolver:  Solving for Uy, Initial residual = 0.00529325, Final residual = 3.67098e-06, No Iterations 2
smoothSolver:  Solving for e, Initial residual = 0.0111668, Final residual = 1.54732e-05, No Iterations 2
DICPCG:  Solving for p, Initial residual = 0.0146805, Final residual = 9.81124e-07, No Iterations 96
diagonal:  Solving for rho, Initial residual = 0, Final residual = 0, No Iterations 0
time step continuity errors : sum local = 6.85197e-09, global = -7.4614e-10, cumulative = 1.12388e-08
PIMPLE: Iteration 3
smoothSolver:  Solving for Ux, Initial residual = 0.000297743, Final residual = 2.85952e-07, No Iterations 2
smoothSolver:  Solving for Uy, Initial residual = 0.00241708, Final residual = 7.24832e-08, No Iterations 3
smoothSolver:  Solving for e, Initial residual = 0.00112759, Final residual = 7.04765e-08, No Iterations 3
DICPCG:  Solving for p, Initial residual = 0.00189202, Final residual = 9.62954e-07, No Iterations 85
diagonal:  Solving for rho, Initial residual = 0, Final residual = 0, No Iterations 0
time step continuity errors : sum local = 6.68097e-09, global = 6.84071e-10, cumulative = 1.19228e-08
smoothSolver:  Solving for k, Initial residual = 0.0414062, Final residual = 3.07793e-07, No Iterations 3
bounding k, min: 0 max: 5.18038 average: 0.919456
ExecutionTime = 7.72 s  ClockTime = 8 s

Courant Number mean: 0.536336 max: 0.72614
Time = 0.115

PIMPLE: Iteration 1
diagonal:  Solving for rho, Initial residual = 0, Final residual = 0, No Iterations 0
smoothSolver:  Solving for Ux, Initial residual = 0.0446791, Final residual = 4.44537e-05, No Iterations 2
smoothSolver:  Solving for Uy, Initial residual = 0.0493464, Final residual = 3.13822e-05, No Iterations 2
smoothSolver:  Solving for e, Initial residual = 0.0474381, Final residual = 4.66034e-05, No Iterations 2
DICPCG:  Solving for p, Initial residual = 0.27964, Final residual = 9.90172e-07, No Iterations 120
diagonal:  Solving for rho, Initial residual = 0, Final residual = 0, No Iterations 0
time step continuity errors : sum local = 6.15673e-09, global = -2.20826e-11, cumulative = 1.19008e-08
PIMPLE: Iteration 2
smoothSolver:  Solving for Ux, Initial residual = 0.00256004, Final residual = 2.47055e-06, No Iterations 2
smoothSolver:  Solving for Uy, Initial residual = 0.00410602, Final residual = 2.8785e-06, No Iterations 2
smoothSolver:  Solving for e, Initial residual = 0.0084328, Final residual = 1.16521e-05, No Iterations 2
DICPCG:  Solving for p, Initial residual = 0.0218509, Final residual = 7.9525e-07, No Iterations 106
diagonal:  Solving for rho, Initial residual = 0, Final residual = 0, No Iterations 0
time step continuity errors : sum local = 2.76953e-09, global = -2.31783e-10, cumulative = 1.1669e-08
PIMPLE: Iteration 3
smoothSolver:  Solving for Ux, Initial residual = 0.000224899, Final residual = 2.10608e-07, No Iterations 2
smoothSolver:  Solving for Uy, Initial residual = 0.0022749, Final residual = 7.066e-08, No Iterations 3
smoothSolver:  Solving for e, Initial residual = 0.00113609, Final residual = 6.78308e-08, No Iterations 3
DICPCG:  Solving for p, Initial residual = 0.0037367, Final residual = 9.28816e-07, No Iterations 90
diagonal:  Solving for rho, Initial residual = 0, Final residual = 0, No Iterations 0
time step continuity errors : sum local = 3.20941e-09, global = 2.35204e-10, cumulative = 1.19042e-08
smoothSolver:  Solving for k, Initial residual = 0.0374234, Final residual = 2.85716e-07, No Iterations 3
bounding k, min: 0 max: 4.95673 average: 0.947813
ExecutionTime = 7.95 s  ClockTime = 9 s

Courant Number mean: 0.541047 max: 0.741226
Time = 0.12

PIMPLE: Iteration 1
diagonal:  Solving for rho, Initial residual = 0, Final residual = 0, No Iterations 0
smoothSolver:  Solving for Ux, Initial residual = 0.0311792, Final residual = 3.19021e-05, No Iterations 2
smoothSolver:  Solving for Uy, Initial residual = 0.0445411, Final residual = 2.76696e-05, No Iterations 2
smoothSolver:  Solving for e, Initial residual = 0.0457917, Final residual = 4.41823e-05, No Iterations 2
DICPCG:  Solving for p, Initial residual = 0.462605, Final residual = 9.34897e-07, No Iterations 126
diagonal:  Solving for rho, Initial residual = 0, Final residual = 0, No Iterations 0
time step continuity errors : sum local = 3.44235e-09, global = -1.6918e-10, cumulative = 1.1735e-08
PIMPLE: Iteration 2
smoothSolver:  Solving for Ux, Initial residual = 0.00276126, Final residual = 2.40505e-06, No Iterations 2
smoothSolver:  Solving for Uy, Initial residual = 0.00398997, Final residual = 2.76432e-06, No Iterations 2
smoothSolver:  Solving for e, Initial residual = 0.00555106, Final residual = 7.79574e-06, No Iterations 2
DICPCG:  Solving for p, Initial residual = 0.0379565, Final residual = 7.55876e-07, No Iterations 108
diagonal:  Solving for rho, Initial residual = 0, Final residual = 0, No Iterations 0
time step continuity errors : sum local = 1.08726e-09, global = 2.121e-10, cumulative = 1.19471e-08
PIMPLE: Iteration 3
smoothSolver:  Solving for Ux, Initial residual = 0.0001817, Final residual = 1.79681e-07, No Iterations 2
smoothSolver:  Solving for Uy, Initial residual = 0.00225243, Final residual = 6.80118e-08, No Iterations 3
smoothSolver:  Solving for e, Initial residual = 0.00103102, Final residual = 5.23302e-08, No Iterations 3
DICPCG:  Solving for p, Initial residual = 0.00861292, Final residual = 9.09338e-07, No Iterations 98
diagonal:  Solving for rho, Initial residual = 0, Final residual = 0, No Iterations 0
time step continuity errors : sum local = 1.26747e-09, global = 1.7156e-10, cumulative = 1.21187e-08
smoothSolver:  Solving for k, Initial residual = 0.0343095, Final residual = 2.72736e-07, No Iterations 3
bounding k, min: 0 max: 4.70284 average: 0.961261
ExecutionTime = 8.61 s  ClockTime = 9 s

Courant Number mean: 0.539372 max: 0.750286
Time = 0.125

PIMPLE: Iteration 1
diagonal:  Solving for rho, Initial residual = 0, Final residual = 0, No Iterations 0
smoothSolver:  Solving for Ux, Initial residual = 0.0245585, Final residual = 2.56447e-05, No Iterations 2
smoothSolver:  Solving for Uy, Initial residual = 0.0362602, Final residual = 2.11657e-05, No Iterations 2
smoothSolver:  Solving for e, Initial residual = 0.0425372, Final residual = 3.92722e-05, No Iterations 2
DICPCG:  Solving for p, Initial residual = 0.603344, Final residual = 9.3506e-07, No Iterations 132
diagonal:  Solving for rho, Initial residual = 0, Final residual = 0, No Iterations 0
time step continuity errors : sum local = 2.54405e-09, global = -2.37279e-11, cumulative = 1.20949e-08
PIMPLE: Iteration 2
smoothSolver:  Solving for Ux, Initial residual = 0.00252169, Final residual = 1.9032e-06, No Iterations 2
smoothSolver:  Solving for Uy, Initial residual = 0.00420297, Final residual = 2.51153e-06, No Iterations 2
smoothSolver:  Solving for e, Initial residual = 0.0052861, Final residual = 7.46636e-06, No Iterations 2
DICPCG:  Solving for p, Initial residual = 0.0165308, Final residual = 9.29984e-07, No Iterations 106
diagonal:  Solving for rho, Initial residual = 0, Final residual = 0, No Iterations 0
time step continuity errors : sum local = 3.5931e-09, global = 9.95083e-11, cumulative = 1.21944e-08
PIMPLE: Iteration 3
smoothSolver:  Solving for Ux, Initial residual = 0.000177922, Final residual = 1.77773e-07, No Iterations 2
smoothSolver:  Solving for Uy, Initial residual = 0.00202075, Final residual = 5.37013e-08, No Iterations 3
smoothSolver:  Solving for e, Initial residual = 0.000885611, Final residual = 4.05029e-08, No Iterations 3
DICPCG:  Solving for p, Initial residual = 0.00281184, Final residual = 9.23761e-07, No Iterations 89
diagonal:  Solving for rho, Initial residual = 0, Final residual = 0, No Iterations 0
time step continuity errors : sum local = 3.52136e-09, global = 1.64388e-11, cumulative = 1.22109e-08
smoothSolver:  Solving for k, Initial residual = 0.0343601, Final residual = 2.62355e-07, No Iterations 3
bounding k, min: 0 max: 4.40632 average: 0.958808
ExecutionTime = 8.86 s  ClockTime = 10 s

Courant Number mean: 0.531121 max: 0.754232
Time = 0.13

PIMPLE: Iteration 1
diagonal:  Solving for rho, Initial residual = 0, Final residual = 0, No Iterations 0
smoothSolver:  Solving for Ux, Initial residual = 0.0348096, Final residual = 3.2227e-05, No Iterations 2
smoothSolver:  Solving for Uy, Initial residual = 0.026218, Final residual = 1.42046e-05, No Iterations 2
smoothSolver:  Solving for e, Initial residual = 0.0391404, Final residual = 3.51452e-05, No Iterations 2
DICPCG:  Solving for p, Initial residual = 0.339171, Final residual = 8.6118e-07, No Iterations 124
diagonal:  Solving for rho, Initial residual = 0, Final residual = 0, No Iterations 0
time step continuity errors : sum local = 4.12216e-09, global = -2.33046e-10, cumulative = 1.19778e-08
PIMPLE: Iteration 2
smoothSolver:  Solving for Ux, Initial residual = 0.00209167, Final residual = 1.4203e-06, No Iterations 2
smoothSolver:  Solving for Uy, Initial residual = 0.00390663, Final residual = 1.88988e-06, No Iterations 2
smoothSolver:  Solving for e, Initial residual = 0.00681272, Final residual = 7.64074e-06, No Iterations 2
DICPCG:  Solving for p, Initial residual = 0.0123701, Final residual = 9.81112e-07, No Iterations 101
diagonal:  Solving for rho, Initial residual = 0, Final residual = 0, No Iterations 0
time step continuity errors : sum local = 6.51485e-09, global = 5.22003e-10, cumulative = 1.24998e-08
PIMPLE: Iteration 3
smoothSolver:  Solving for Ux, Initial residual = 0.000220717, Final residual = 1.70527e-07, No Iterations 2
smoothSolver:  Solving for Uy, Initial residual = 0.00169596, Final residual = 3.9725e-08, No Iterations 3
smoothSolver:  Solving for e, Initial residual = 0.000685549, Final residual = 7.62925e-07, No Iterations 2
DICPCG:  Solving for p, Initial residual = 0.00126391, Final residual = 9.94319e-07, No Iterations 79
diagonal:  Solving for rho, Initial residual = 0, Final residual = 0, No Iterations 0
time step continuity errors : sum local = 6.52899e-09, global = -4.45793e-10, cumulative = 1.2054e-08
smoothSolver:  Solving for k, Initial residual = 0.0355248, Final residual = 2.48758e-07, No Iterations 3
bounding k, min: 0 max: 4.16409 average: 0.941555
ExecutionTime = 9.09 s  ClockTime = 10 s

Courant Number mean: 0.516762 max: 0.754842
Time = 0.135

PIMPLE: Iteration 1
diagonal:  Solving for rho, Initial residual = 0, Final residual = 0, No Iterations 0
smoothSolver:  Solving for Ux, Initial residual = 0.0479635, Final residual = 3.44546e-05, No Iterations 2
smoothSolver:  Solving for Uy, Initial residual = 0.0193248, Final residual = 1.10204e-05, No Iterations 2
smoothSolver:  Solving for e, Initial residual = 0.0354093, Final residual = 3.15906e-05, No Iterations 2
DICPCG:  Solving for p, Initial residual = 0.222015, Final residual = 9.65489e-07, No Iterations 117
diagonal:  Solving for rho, Initial residual = 0, Final residual = 0, No Iterations 0
time step continuity errors : sum local = 6.93315e-09, global = 1.64554e-10, cumulative = 1.22186e-08
PIMPLE: Iteration 2
smoothSolver:  Solving for Ux, Initial residual = 0.00161952, Final residual = 1.18256e-06, No Iterations 2
smoothSolver:  Solving for Uy, Initial residual = 0.00312373, Final residual = 1.22946e-06, No Iterations 2
smoothSolver:  Solving for e, Initial residual = 0.0075288, Final residual = 6.40879e-06, No Iterations 2
DICPCG:  Solving for p, Initial residual = 0.0104767, Final residual = 9.13557e-07, No Iterations 101
diagonal:  Solving for rho, Initial residual = 0, Final residual = 0, No Iterations 0
time step continuity errors : sum local = 7.92769e-09, global = 6.82243e-10, cumulative = 1.29008e-08
PIMPLE: Iteration 3
smoothSolver:  Solving for Ux, Initial residual = 0.00023059, Final residual = 1.36642e-07, No Iterations 2
smoothSolver:  Solving for Uy, Initial residual = 0.00131197, Final residual = 8.03953e-07, No Iterations 2
smoothSolver:  Solving for e, Initial residual = 0.000511017, Final residual = 5.40609e-07, No Iterations 2
DICPCG:  Solving for p, Initial residual = 0.000781587, Final residual = 9.09906e-07, No Iterations 76
diagonal:  Solving for rho, Initial residual = 0, Final residual = 0, No Iterations 0
time step continuity errors : sum local = 7.82001e-09, global = 9.70183e-11, cumulative = 1.29979e-08
smoothSolver:  Solving for k, Initial residual = 0.0374576, Final residual = 2.38968e-07, No Iterations 3
bounding k, min: 0 max: 4.01807 average: 0.912317
ExecutionTime = 9.33 s  ClockTime = 10 s

Courant Number mean: 0.497431 max: 0.753068
Time = 0.14

PIMPLE: Iteration 1
diagonal:  Solving for rho, Initial residual = 0, Final residual = 0, No Iterations 0
smoothSolver:  Solving for Ux, Initial residual = 0.0589141, Final residual = 3.81693e-05, No Iterations 2
smoothSolver:  Solving for Uy, Initial residual = 0.0184106, Final residual = 1.09416e-05, No Iterations 2
smoothSolver:  Solving for e, Initial residual = 0.03203, Final residual = 2.85428e-05, No Iterations 2
DICPCG:  Solving for p, Initial residual = 0.174401, Final residual = 9.00032e-07, No Iterations 108
diagonal:  Solving for rho, Initial residual = 0, Final residual = 0, No Iterations 0
time step continuity errors : sum local = 8.02568e-09, global = 2.53896e-10, cumulative = 1.32517e-08
PIMPLE: Iteration 2
smoothSolver:  Solving for Ux, Initial residual = 0.00118783, Final residual = 1.11827e-06, No Iterations 2
smoothSolver:  Solving for Uy, Initial residual = 0.00208305, Final residual = 7.32964e-07, No Iterations 2
smoothSolver:  Solving for e, Initial residual = 0.00735187, Final residual = 5.2526e-06, No Iterations 2
DICPCG:  Solving for p, Initial residual = 0.00895786, Final residual = 9.15689e-07, No Iterations 99
diagonal:  Solving for rho, Initial residual = 0, Final residual = 0, No Iterations 0
time step continuity errors : sum local = 9.08644e-09, global = 8.66226e-10, cumulative = 1.4118e-08
PIMPLE: Iteration 3
smoothSolver:  Solving for Ux, Initial residual = 0.000202009, Final residual = 9.62551e-08, No Iterations 2
smoothSolver:  Solving for Uy, Initial residual = 0.000967785, Final residual = 5.70973e-07, No Iterations 2
smoothSolver:  Solving for e, Initial residual = 0.000523956, Final residual = 4.82167e-07, No Iterations 2
DICPCG:  Solving for p, Initial residual = 0.00076074, Final residual = 9.37767e-07, No Iterations 76
diagonal:  Solving for rho, Initial residual = 0, Final residual = 0, No Iterations 0
time step continuity errors : sum local = 9.2335e-09, global = 4.4464e-10, cumulative = 1.45626e-08
smoothSolver:  Solving for k, Initial residual = 0.039549, Final residual = 2.18789e-07, No Iterations 3
bounding k, min: 0 max: 3.84267 average: 0.874446
ExecutionTime = 9.97 s  ClockTime = 11 s

Courant Number mean: 0.474755 max: 0.748261
Time = 0.145

PIMPLE: Iteration 1
diagonal:  Solving for rho, Initial residual = 0, Final residual = 0, No Iterations 0
smoothSolver:  Solving for Ux, Initial residual = 0.0665085, Final residual = 4.30767e-05, No Iterations 2
smoothSolver:  Solving for Uy, Initial residual = 0.0215402, Final residual = 1.10287e-05, No Iterations 2
smoothSolver:  Solving for e, Initial residual = 0.0304332, Final residual = 2.69651e-05, No Iterations 2
DICPCG:  Solving for p, Initial residual = 0.148462, Final residual = 8.40364e-07, No Iterations 111
diagonal:  Solving for rho, Initial residual = 0, Final residual = 0, No Iterations 0
time step continuity errors : sum local = 8.48043e-09, global = 3.826e-11, cumulative = 1.46009e-08
PIMPLE: Iteration 2
smoothSolver:  Solving for Ux, Initial residual = 0.00180775, Final residual = 1.30846e-06, No Iterations 2
smoothSolver:  Solving for Uy, Initial residual = 0.00141753, Final residual = 5.81988e-07, No Iterations 2
smoothSolver:  Solving for e, Initial residual = 0.00585429, Final residual = 3.84723e-06, No Iterations 2
DICPCG:  Solving for p, Initial residual = 0.00650362, Final residual = 9.54453e-07, No Iterations 93
diagonal:  Solving for rho, Initial residual = 0, Final residual = 0, No Iterations 0
time step continuity errors : sum local = 1.01374e-08, global = 5.52534e-10, cumulative = 1.51534e-08
PIMPLE: Iteration 3
smoothSolver:  Solving for Ux, Initial residual = 0.000142714, Final residual = 6.3097e-08, No Iterations 2
smoothSolver:  Solving for Uy, Initial residual = 0.000856762, Final residual = 4.76981e-07, No Iterations 2
smoothSolver:  Solving for e, Initial residual = 0.000540953, Final residual = 4.15032e-07, No Iterations 2
DICPCG:  Solving for p, Initial residual = 0.000722705, Final residual = 9.07376e-07, No Iterations 74
diagonal:  Solving for rho, Initial residual = 0, Final residual = 0, No Iterations 0
time step continuity errors : sum local = 9.58112e-09, global = 6.94041e-10, cumulative = 1.58474e-08
smoothSolver:  Solving for k, Initial residual = 0.0417968, Final residual = 1.91018e-07, No Iterations 3
bounding k, min: 0 max: 3.64063 average: 0.830841
ExecutionTime = 10.19 s  ClockTime = 11 s

Courant Number mean: 0.45051 max: 0.738727
Time = 0.15

PIMPLE: Iteration 1
diagonal:  Solving for rho, Initial residual = 0, Final residual = 0, No Iterations 0
smoothSolver:  Solving for Ux, Initial residual = 0.070259, Final residual = 4.65118e-05, No Iterations 2
smoothSolver:  Solving for Uy, Initial residual = 0.0225585, Final residual = 9.81343e-06, No Iterations 2
smoothSolver:  Solving for e, Initial residual = 0.0299378, Final residual = 2.52368e-05, No Iterations 2
DICPCG:  Solving for p, Initial residual = 0.130357, Final residual = 8.62746e-07, No Iterations 102
diagonal:  Solving for rho, Initial residual = 0, Final residual = 0, No Iterations 0
time step continuity errors : sum local = 9.35252e-09, global = 5.16988e-11, cumulative = 1.58991e-08
PIMPLE: Iteration 2
smoothSolver:  Solving for Ux, Initial residual = 0.00232167, Final residual = 1.28303e-06, No Iterations 2
smoothSolver:  Solving for Uy, Initial residual = 0.00144, Final residual = 5.83314e-07, No Iterations 2
smoothSolver:  Solving for e, Initial residual = 0.0039719, Final residual = 2.64068e-06, No Iterations 2
DICPCG:  Solving for p, Initial residual = 0.00521472, Final residual = 9.22923e-07, No Iterations 93
diagonal:  Solving for rho, Initial residual = 0, Final residual = 0, No Iterations 0
time step continuity errors : sum local = 1.02296e-08, global = 1.37675e-10, cumulative = 1.60368e-08
PIMPLE: Iteration 3
smoothSolver:  Solving for Ux, Initial residual = 0.000116823, Final residual = 6.63808e-08, No Iterations 2
smoothSolver:  Solving for Uy, Initial residual = 0.0010112, Final residual = 4.80608e-07, No Iterations 2
smoothSolver:  Solving for e, Initial residual = 0.000444538, Final residual = 2.57187e-07, No Iterations 2
DICPCG:  Solving for p, Initial residual = 0.00058272, Final residual = 9.11695e-07, No Iterations 70
diagonal:  Solving for rho, Initial residual = 0, Final residual = 0, No Iterations 0
time step continuity errors : sum local = 1.00534e-08, global = 9.9802e-10, cumulative = 1.70348e-08
smoothSolver:  Solving for k, Initial residual = 0.0441368, Final residual = 1.67734e-07, No Iterations 3
bounding k, min: 0 max: 3.41008 average: 0.783734
ExecutionTime = 10.41 s  ClockTime = 11 s

Courant Number mean: 0.426226 max: 0.722449
Time = 0.155

PIMPLE: Iteration 1
diagonal:  Solving for rho, Initial residual = 0, Final residual = 0, No Iterations 0
smoothSolver:  Solving for Ux, Initial residual = 0.0718718, Final residual = 4.87532e-05, No Iterations 2
smoothSolver:  Solving for Uy, Initial residual = 0.0206787, Final residual = 7.80105e-06, No Iterations 2
smoothSolver:  Solving for e, Initial residual = 0.0292358, Final residual = 2.19974e-05, No Iterations 2
DICPCG:  Solving for p, Initial residual = 0.123495, Final residual = 9.21124e-07, No Iterations 108
diagonal:  Solving for rho, Initial residual = 0, Final residual = 0, No Iterations 0
time step continuity errors : sum local = 1.03664e-08, global = 1.39958e-10, cumulative = 1.71748e-08
PIMPLE: Iteration 2
smoothSolver:  Solving for Ux, Initial residual = 0.00240259, Final residual = 1.10009e-06, No Iterations 2
smoothSolver:  Solving for Uy, Initial residual = 0.00172538, Final residual = 5.85363e-07, No Iterations 2
smoothSolver:  Solving for e, Initial residual = 0.00405961, Final residual = 2.67979e-06, No Iterations 2
DICPCG:  Solving for p, Initial residual = 0.00522255, Final residual = 8.70912e-07, No Iterations 84
diagonal:  Solving for rho, Initial residual = 0, Final residual = 0, No Iterations 0
time step continuity errors : sum local = 9.81062e-09, global = -9.29804e-10, cumulative = 1.6245e-08
PIMPLE: Iteration 3
smoothSolver:  Solving for Ux, Initial residual = 0.00013232, Final residual = 6.26856e-08, No Iterations 2
smoothSolver:  Solving for Uy, Initial residual = 0.00111675, Final residual = 4.7301e-07, No Iterations 2
smoothSolver:  Solving for e, Initial residual = 0.000344968, Final residual = 1.91853e-07, No Iterations 2
DICPCG:  Solving for p, Initial residual = 0.000485518, Final residual = 9.68962e-07, No Iterations 67
diagonal:  Solving for rho, Initial residual = 0, Final residual = 0, No Iterations 0
time step continuity errors : sum local = 1.08668e-08, global = 7.12685e-10, cumulative = 1.69577e-08
smoothSolver:  Solving for k, Initial residual = 0.0461862, Final residual = 1.48572e-07, No Iterations 3
bounding k, min: 0 max: 3.14679 average: 0.735059
ExecutionTime = 10.63 s  ClockTime = 11 s

Courant Number mean: 0.402871 max: 0.697435
Time = 0.16

PIMPLE: Iteration 1
diagonal:  Solving for rho, Initial residual = 0, Final residual = 0, No Iterations 0
smoothSolver:  Solving for Ux, Initial residual = 0.0739488, Final residual = 5.00314e-05, No Iterations 2
smoothSolver:  Solving for Uy, Initial residual = 0.0175115, Final residual = 5.66108e-06, No Iterations 2
smoothSolver:  Solving for e, Initial residual = 0.0270293, Final residual = 1.75867e-05, No Iterations 2
DICPCG:  Solving for p, Initial residual = 0.108758, Final residual = 8.24639e-07, No Iterations 104
diagonal:  Solving for rho, Initial residual = 0, Final residual = 0, No Iterations 0
time step continuity errors : sum local = 9.34287e-09, global = -3.46286e-10, cumulative = 1.66114e-08
PIMPLE: Iteration 2
smoothSolver:  Solving for Ux, Initial residual = 0.00218505, Final residual = 8.84092e-07, No Iterations 2
smoothSolver:  Solving for Uy, Initial residual = 0.00203399, Final residual = 6.37955e-07, No Iterations 2
smoothSolver:  Solving for e, Initial residual = 0.00429503, Final residual = 2.21951e-06, No Iterations 2
DICPCG:  Solving for p, Initial residual = 0.0058325, Final residual = 9.66748e-07, No Iterations 91
diagonal:  Solving for rho, Initial residual = 0, Final residual = 0, No Iterations 0
time step continuity errors : sum local = 1.07593e-08, global = -4.33416e-10, cumulative = 1.6178e-08
PIMPLE: Iteration 3
smoothSolver:  Solving for Ux, Initial residual = 0.000178335, Final residual = 5.43615e-08, No Iterations 2
smoothSolver:  Solving for Uy, Initial residual = 0.0010796, Final residual = 4.33171e-07, No Iterations 2
smoothSolver:  Solving for e, Initial residual = 0.000277642, Final residual = 1.72239e-07, No Iterations 2
DICPCG:  Solving for p, Initial residual = 0.000462211, Final residual = 9.7348e-07, No Iterations 69
diagonal:  Solving for rho, Initial residual = 0, Final residual = 0, No Iterations 0
time step continuity errors : sum local = 1.08013e-08, global = 3.10616e-10, cumulative = 1.64886e-08
smoothSolver:  Solving for k, Initial residual = 0.0474717, Final residual = 1.24368e-07, No Iterations 3
bounding k, min: 0 max: 2.84977 average: 0.68676
ExecutionTime = 11.26 s  ClockTime = 12 s

Courant Number mean: 0.380724 max: 0.662347
Time = 0.165

PIMPLE: Iteration 1
diagonal:  Solving for rho, Initial residual = 0, Final residual = 0, No Iterations 0
smoothSolver:  Solving for Ux, Initial residual = 0.0827994, Final residual = 4.9211e-05, No Iterations 2
smoothSolver:  Solving for Uy, Initial residual = 0.0159019, Final residual = 4.11889e-06, No Iterations 2
smoothSolver:  Solving for e, Initial residual = 0.0228401, Final residual = 1.27195e-05, No Iterations 2
DICPCG:  Solving for p, Initial residual = 0.0830241, Final residual = 8.29782e-07, No Iterations 108
diagonal:  Solving for rho, Initial residual = 0, Final residual = 0, No Iterations 0
time step continuity errors : sum local = 9.22337e-09, global = -1.9779e-11, cumulative = 1.64688e-08
PIMPLE: Iteration 2
smoothSolver:  Solving for Ux, Initial residual = 0.0019025, Final residual = 7.01294e-07, No Iterations 2
smoothSolver:  Solving for Uy, Initial residual = 0.00205672, Final residual = 5.85159e-07, No Iterations 2
smoothSolver:  Solving for e, Initial residual = 0.00543565, Final residual = 2.53795e-06, No Iterations 2
DICPCG:  Solving for p, Initial residual = 0.00742717, Final residual = 9.64712e-07, No Iterations 93
diagonal:  Solving for rho, Initial residual = 0, Final residual = 0, No Iterations 0
time step continuity errors : sum local = 1.04179e-08, global = -4.8528e-11, cumulative = 1.64203e-08
PIMPLE: Iteration 3
smoothSolver:  Solving for Ux, Initial residual = 0.000184931, Final residual = 4.77091e-08, No Iterations 2
smoothSolver:  Solving for Uy, Initial residual = 0.00097139, Final residual = 3.46966e-07, No Iterations 2
smoothSolver:  Solving for e, Initial residual = 0.00033744, Final residual = 1.74567e-07, No Iterations 2
DICPCG:  Solving for p, Initial residual = 0.000570231, Final residual = 9.26465e-07, No Iterations 66
diagonal:  Solving for rho, Initial residual = 0, Final residual = 0, No Iterations 0
time step continuity errors : sum local = 9.99378e-09, global = 9.48933e-10, cumulative = 1.73692e-08
smoothSolver:  Solving for k, Initial residual = 0.0475605, Final residual = 9.86852e-08, No Iterations 3
bounding k, min: 0 max: 2.58826 average: 0.64075
ExecutionTime = 11.5 s  ClockTime = 12 s

Courant Number mean: 0.359675 max: 0.616769
Time = 0.17

PIMPLE: Iteration 1
diagonal:  Solving for rho, Initial residual = 0, Final residual = 0, No Iterations 0
smoothSolver:  Solving for Ux, Initial residual = 0.0898271, Final residual = 4.3362e-05, No Iterations 2
smoothSolver:  Solving for Uy, Initial residual = 0.0151537, Final residual = 3.14073e-06, No Iterations 2
smoothSolver:  Solving for e, Initial residual = 0.0181625, Final residual = 8.37545e-06, No Iterations 2
DICPCG:  Solving for p, Initial residual = 0.0559538, Final residual = 9.6966e-07, No Iterations 104
diagonal:  Solving for rho, Initial residual = 0, Final residual = 0, No Iterations 0
time step continuity errors : sum local = 1.04087e-08, global = -4.80484e-10, cumulative = 1.68887e-08
PIMPLE: Iteration 2
smoothSolver:  Solving for Ux, Initial residual = 0.00157079, Final residual = 4.80958e-07, No Iterations 2
smoothSolver:  Solving for Uy, Initial residual = 0.00179341, Final residual = 4.42944e-07, No Iterations 2
smoothSolver:  Solving for e, Initial residual = 0.00602324, Final residual = 2.85156e-06, No Iterations 2
DICPCG:  Solving for p, Initial residual = 0.0082525, Final residual = 9.40303e-07, No Iterations 91
diagonal:  Solving for rho, Initial residual = 0, Final residual = 0, No Iterations 0
time step continuity errors : sum local = 9.80145e-09, global = 9.88359e-11, cumulative = 1.69876e-08
PIMPLE: Iteration 3
smoothSolver:  Solving for Ux, Initial residual = 0.000169351, Final residual = 4.17356e-08, No Iterations 2
smoothSolver:  Solving for Uy, Initial residual = 0.000926697, Final residual = 2.52151e-07, No Iterations 2
smoothSolver:  Solving for e, Initial residual = 0.000325506, Final residual = 1.34829e-07, No Iterations 2
DICPCG:  Solving for p, Initial residual = 0.000549467, Final residual = 9.91072e-07, No Iterations 57
diagonal:  Solving for rho, Initial residual = 0, Final residual = 0, No Iterations 0
time step continuity errors : sum local = 1.03379e-08, global = 9.04877e-10, cumulative = 1.78925e-08
smoothSolver:  Solving for k, Initial residual = 0.0475402, Final residual = 7.86619e-08, No Iterations 3
bounding k, min: 0 max: 2.38614 average: 0.598628
ExecutionTime = 11.71 s  ClockTime = 12 s

Courant Number mean: 0.340128 max: 0.561522
Time = 0.175

PIMPLE: Iteration 1
diagonal:  Solving for rho, Initial residual = 0, Final residual = 0, No Iterations 0
smoothSolver:  Solving for Ux, Initial residual = 0.0897304, Final residual = 3.41137e-05, No Iterations 2
smoothSolver:  Solving for Uy, Initial residual = 0.0160805, Final residual = 3.00195e-06, No Iterations 2
smoothSolver:  Solving for e, Initial residual = 0.0156211, Final residual = 5.71477e-06, No Iterations 2
DICPCG:  Solving for p, Initial residual = 0.0430818, Final residual = 6.68054e-07, No Iterations 106
diagonal:  Solving for rho, Initial residual = 0, Final residual = 0, No Iterations 0
[...]
smoothSolver:  Solving for e, Initial residual = 4.17215e-06, Final residual = 4.01393e-08, No Iterations 1
DICPCG:  Solving for p, Initial residual = 0.00100365, Final residual = 9.7185e-07, No Iterations 64
diagonal:  Solving for rho, Initial residual = 0, Final residual = 0, No Iterations 0
time step continuity errors : sum local = 3.96221e-10, global = -4.35072e-12, cumulative = 8.02736e-08
PIMPLE: Iteration 2
smoothSolver:  Solving for Ux, Initial residual = 6.42291e-07, Final residual = 6.42291e-07, No Iterations 0
smoothSolver:  Solving for Uy, Initial residual = 1.74747e-06, Final residual = 2.13908e-08, No Iterations 1
smoothSolver:  Solving for e, Initial residual = 2.02695e-07, Final residual = 2.02695e-07, No Iterations 0
DICPCG:  Solving for p, Initial residual = 1.52637e-05, Final residual = 9.47944e-07, No Iterations 40
diagonal:  Solving for rho, Initial residual = 0, Final residual = 0, No Iterations 0
time step continuity errors : sum local = 3.86283e-10, global = 1.16604e-11, cumulative = 8.02853e-08
PIMPLE: Iteration 3
smoothSolver:  Solving for Ux, Initial residual = 9.92174e-08, Final residual = 9.92174e-08, No Iterations 0
smoothSolver:  Solving for Uy, Initial residual = 1.26585e-06, Final residual = 1.83773e-08, No Iterations 1
smoothSolver:  Solving for e, Initial residual = 2.10498e-07, Final residual = 2.10498e-07, No Iterations 0
DICPCG:  Solving for p, Initial residual = 3.65117e-06, Final residual = 9.19908e-07, No Iterations 14
diagonal:  Solving for rho, Initial residual = 0, Final residual = 0, No Iterations 0
time step continuity errors : sum local = 3.74779e-10, global = 1.7126e-11, cumulative = 8.03024e-08
smoothSolver:  Solving for k, Initial residual = 1.77182e-05, Final residual = 1.01413e-07, No Iterations 1
bounding k, min: 0 max: 1.9142 average: 0.323579
ExecutionTime = 354.61 s  ClockTime = 365 s

Courant Number mean: 0.318425 max: 0.536792
Time = 5.965

PIMPLE: Iteration 1
diagonal:  Solving for rho, Initial residual = 0, Final residual = 0, No Iterations 0
smoothSolver:  Solving for Ux, Initial residual = 1.38328e-05, Final residual = 1.19346e-07, No Iterations 1
smoothSolver:  Solving for Uy, Initial residual = 2.38836e-05, Final residual = 2.74086e-07, No Iterations 1
smoothSolver:  Solving for e, Initial residual = 4.11731e-06, Final residual = 3.97498e-08, No Iterations 1
DICPCG:  Solving for p, Initial residual = 0.00107519, Final residual = 9.59969e-07, No Iterations 61
diagonal:  Solving for rho, Initial residual = 0, Final residual = 0, No Iterations 0
time step continuity errors : sum local = 3.9101e-10, global = -4.97513e-12, cumulative = 8.02974e-08
PIMPLE: Iteration 2
smoothSolver:  Solving for Ux, Initial residual = 3.22513e-07, Final residual = 3.22513e-07, No Iterations 0
smoothSolver:  Solving for Uy, Initial residual = 1.82677e-06, Final residual = 2.28269e-08, No Iterations 1
smoothSolver:  Solving for e, Initial residual = 2.20676e-07, Final residual = 2.20676e-07, No Iterations 0
DICPCG:  Solving for p, Initial residual = 1.19737e-05, Final residual = 9.13167e-07, No Iterations 40
diagonal:  Solving for rho, Initial residual = 0, Final residual = 0, No Iterations 0
time step continuity errors : sum local = 3.72122e-10, global = 4.29134e-11, cumulative = 8.03403e-08
PIMPLE: Iteration 3
smoothSolver:  Solving for Ux, Initial residual = 5.6846e-08, Final residual = 5.6846e-08, No Iterations 0
smoothSolver:  Solving for Uy, Initial residual = 1.26663e-06, Final residual = 1.83183e-08, No Iterations 1
smoothSolver:  Solving for e, Initial residual = 2.22313e-07, Final residual = 2.22313e-07, No Iterations 0
DICPCG:  Solving for p, Initial residual = 3.32111e-06, Final residual = 9.91821e-07, No Iterations 2
diagonal:  Solving for rho, Initial residual = 0, Final residual = 0, No Iterations 0
time step continuity errors : sum local = 4.03789e-10, global = 2.33202e-10, cumulative = 8.05735e-08
smoothSolver:  Solving for k, Initial residual = 1.76309e-05, Final residual = 9.59908e-08, No Iterations 1
bounding k, min: 0 max: 1.9142 average: 0.323582
ExecutionTime = 354.77 s  ClockTime = 365 s

Courant Number mean: 0.318424 max: 0.536792
Time = 5.97

PIMPLE: Iteration 1
diagonal:  Solving for rho, Initial residual = 0, Final residual = 0, No Iterations 0
smoothSolver:  Solving for Ux, Initial residual = 1.38894e-05, Final residual = 1.17902e-07, No Iterations 1
smoothSolver:  Solving for Uy, Initial residual = 2.29194e-05, Final residual = 2.6143e-07, No Iterations 1
smoothSolver:  Solving for e, Initial residual = 4.04966e-06, Final residual = 3.92983e-08, No Iterations 1
DICPCG:  Solving for p, Initial residual = 0.00110498, Final residual = 8.67674e-07, No Iterations 68
diagonal:  Solving for rho, Initial residual = 0, Final residual = 0, No Iterations 0
time step continuity errors : sum local = 3.53476e-10, global = 5.68906e-12, cumulative = 8.05792e-08
PIMPLE: Iteration 2
smoothSolver:  Solving for Ux, Initial residual = 7.05517e-07, Final residual = 7.05517e-07, No Iterations 0
smoothSolver:  Solving for Uy, Initial residual = 1.93201e-06, Final residual = 2.52e-08, No Iterations 1
smoothSolver:  Solving for e, Initial residual = 1.68069e-07, Final residual = 1.68069e-07, No Iterations 0
DICPCG:  Solving for p, Initial residual = 1.65384e-05, Final residual = 9.6814e-07, No Iterations 41
diagonal:  Solving for rho, Initial residual = 0, Final residual = 0, No Iterations 0
time step continuity errors : sum local = 3.94163e-10, global = 1.73022e-11, cumulative = 8.05965e-08
PIMPLE: Iteration 3
smoothSolver:  Solving for Ux, Initial residual = 1.0262e-07, Final residual = 1.0262e-07, No Iterations 0
smoothSolver:  Solving for Uy, Initial residual = 1.24634e-06, Final residual = 1.80476e-08, No Iterations 1
smoothSolver:  Solving for e, Initial residual = 1.64956e-07, Final residual = 1.64956e-07, No Iterations 0
DICPCG:  Solving for p, Initial residual = 3.78207e-06, Final residual = 9.29323e-07, No Iterations 17
diagonal:  Solving for rho, Initial residual = 0, Final residual = 0, No Iterations 0
time step continuity errors : sum local = 3.78438e-10, global = 1.73034e-11, cumulative = 8.06138e-08
smoothSolver:  Solving for k, Initial residual = 1.7289e-05, Final residual = 9.13088e-08, No Iterations 1
bounding k, min: 0 max: 1.91421 average: 0.323585
ExecutionTime = 354.93 s  ClockTime = 365 s

Courant Number mean: 0.318422 max: 0.536792
Time = 5.975

PIMPLE: Iteration 1
diagonal:  Solving for rho, Initial residual = 0, Final residual = 0, No Iterations 0
smoothSolver:  Solving for Ux, Initial residual = 1.20349e-05, Final residual = 9.96159e-08, No Iterations 1
smoothSolver:  Solving for Uy, Initial residual = 1.78252e-05, Final residual = 1.9775e-07, No Iterations 1
smoothSolver:  Solving for e, Initial residual = 3.97798e-06, Final residual = 3.88374e-08, No Iterations 1
DICPCG:  Solving for p, Initial residual = 0.00106694, Final residual = 9.54421e-07, No Iterations 70
diagonal:  Solving for rho, Initial residual = 0, Final residual = 0, No Iterations 0
time step continuity errors : sum local = 3.88733e-10, global = 5.20512e-12, cumulative = 8.0619e-08
PIMPLE: Iteration 2
smoothSolver:  Solving for Ux, Initial residual = 9.46738e-07, Final residual = 9.46738e-07, No Iterations 0
smoothSolver:  Solving for Uy, Initial residual = 2.0368e-06, Final residual = 2.65479e-08, No Iterations 1
smoothSolver:  Solving for e, Initial residual = 1.03192e-07, Final residual = 1.03192e-07, No Iterations 0
DICPCG:  Solving for p, Initial residual = 1.92638e-05, Final residual = 9.72795e-07, No Iterations 41
diagonal:  Solving for rho, Initial residual = 0, Final residual = 0, No Iterations 0
time step continuity errors : sum local = 3.96176e-10, global = 1.54811e-11, cumulative = 8.06345e-08
PIMPLE: Iteration 3
smoothSolver:  Solving for Ux, Initial residual = 1.33393e-07, Final residual = 1.33393e-07, No Iterations 0
smoothSolver:  Solving for Uy, Initial residual = 1.24302e-06, Final residual = 1.78861e-08, No Iterations 1
smoothSolver:  Solving for e, Initial residual = 1.07058e-07, Final residual = 1.07058e-07, No Iterations 0
DICPCG:  Solving for p, Initial residual = 4.13057e-06, Final residual = 9.87086e-07, No Iterations 18
diagonal:  Solving for rho, Initial residual = 0, Final residual = 0, No Iterations 0
time step continuity errors : sum local = 4.01842e-10, global = 9.99687e-12, cumulative = 8.06445e-08
smoothSolver:  Solving for k, Initial residual = 1.66662e-05, Final residual = 8.61894e-08, No Iterations 1
bounding k, min: 0 max: 1.91421 average: 0.323587
ExecutionTime = 355.1 s  ClockTime = 365 s

Courant Number mean: 0.31842 max: 0.536792
Time = 5.98

PIMPLE: Iteration 1
diagonal:  Solving for rho, Initial residual = 0, Final residual = 0, No Iterations 0
smoothSolver:  Solving for Ux, Initial residual = 1.08405e-05, Final residual = 9.03562e-08, No Iterations 1
smoothSolver:  Solving for Uy, Initial residual = 1.28912e-05, Final residual = 1.38401e-07, No Iterations 1
smoothSolver:  Solving for e, Initial residual = 3.8888e-06, Final residual = 3.80807e-08, No Iterations 1
DICPCG:  Solving for p, Initial residual = 0.000951631, Final residual = 9.56225e-07, No Iterations 70
diagonal:  Solving for rho, Initial residual = 0, Final residual = 0, No Iterations 0
time step continuity errors : sum local = 3.89428e-10, global = 4.16877e-12, cumulative = 8.06487e-08
PIMPLE: Iteration 2
smoothSolver:  Solving for Ux, Initial residual = 8.20025e-07, Final residual = 8.20025e-07, No Iterations 0
smoothSolver:  Solving for Uy, Initial residual = 2.04346e-06, Final residual = 2.54181e-08, No Iterations 1
smoothSolver:  Solving for e, Initial residual = 1.62083e-07, Final residual = 1.62083e-07, No Iterations 0
DICPCG:  Solving for p, Initial residual = 1.79719e-05, Final residual = 8.9917e-07, No Iterations 41
diagonal:  Solving for rho, Initial residual = 0, Final residual = 0, No Iterations 0
time step continuity errors : sum local = 3.66315e-10, global = 9.4058e-12, cumulative = 8.06581e-08
PIMPLE: Iteration 3
smoothSolver:  Solving for Ux, Initial residual = 1.16511e-07, Final residual = 1.16511e-07, No Iterations 0
smoothSolver:  Solving for Uy, Initial residual = 1.23985e-06, Final residual = 1.77959e-08, No Iterations 1
smoothSolver:  Solving for e, Initial residual = 1.75157e-07, Final residual = 1.75157e-07, No Iterations 0
DICPCG:  Solving for p, Initial residual = 3.95375e-06, Final residual = 9.22804e-07, No Iterations 17
diagonal:  Solving for rho, Initial residual = 0, Final residual = 0, No Iterations 0
time step continuity errors : sum local = 3.75682e-10, global = 1.00073e-11, cumulative = 8.06681e-08
smoothSolver:  Solving for k, Initial residual = 1.56671e-05, Final residual = 8.0658e-08, No Iterations 1
bounding k, min: 0 max: 1.91421 average: 0.323588
ExecutionTime = 355.66 s  ClockTime = 366 s

Courant Number mean: 0.318416 max: 0.536792
Time = 5.985

PIMPLE: Iteration 1
diagonal:  Solving for rho, Initial residual = 0, Final residual = 0, No Iterations 0
smoothSolver:  Solving for Ux, Initial residual = 1.54651e-05, Final residual = 1.32626e-07, No Iterations 1
smoothSolver:  Solving for Uy, Initial residual = 1.17963e-05, Final residual = 1.37642e-07, No Iterations 1
smoothSolver:  Solving for e, Initial residual = 3.76956e-06, Final residual = 3.68957e-08, No Iterations 1
DICPCG:  Solving for p, Initial residual = 0.000770711, Final residual = 9.1814e-07, No Iterations 68
diagonal:  Solving for rho, Initial residual = 0, Final residual = 0, No Iterations 0
time step continuity errors : sum local = 3.73706e-10, global = -3.2116e-12, cumulative = 8.06649e-08
PIMPLE: Iteration 2
smoothSolver:  Solving for Ux, Initial residual = 3.78037e-07, Final residual = 3.78037e-07, No Iterations 0
smoothSolver:  Solving for Uy, Initial residual = 1.77784e-06, Final residual = 2.14011e-08, No Iterations 1
smoothSolver:  Solving for e, Initial residual = 2.40161e-07, Final residual = 2.40161e-07, No Iterations 0
DICPCG:  Solving for p, Initial residual = 1.3047e-05, Final residual = 9.46133e-07, No Iterations 39
diagonal:  Solving for rho, Initial residual = 0, Final residual = 0, No Iterations 0
time step continuity errors : sum local = 3.85346e-10, global = 3.49462e-12, cumulative = 8.06684e-08
PIMPLE: Iteration 3
smoothSolver:  Solving for Ux, Initial residual = 5.99104e-08, Final residual = 5.99104e-08, No Iterations 0
smoothSolver:  Solving for Uy, Initial residual = 1.20856e-06, Final residual = 1.73578e-08, No Iterations 1
smoothSolver:  Solving for e, Initial residual = 2.48876e-07, Final residual = 2.48876e-07, No Iterations 0
DICPCG:  Solving for p, Initial residual = 3.46916e-06, Final residual = 9.83889e-07, No Iterations 13
diagonal:  Solving for rho, Initial residual = 0, Final residual = 0, No Iterations 0
time step continuity errors : sum local = 4.0025e-10, global = 2.61563e-11, cumulative = 8.06945e-08
smoothSolver:  Solving for k, Initial residual = 1.59409e-05, Final residual = 7.98019e-08, No Iterations 1
bounding k, min: 0 max: 1.9142 average: 0.323588
ExecutionTime = 355.83 s  ClockTime = 366 s

Courant Number mean: 0.318412 max: 0.536792
Time = 5.99

PIMPLE: Iteration 1
diagonal:  Solving for rho, Initial residual = 0, Final residual = 0, No Iterations 0
smoothSolver:  Solving for Ux, Initial residual = 1.9297e-05, Final residual = 1.67384e-07, No Iterations 1
smoothSolver:  Solving for Uy, Initial residual = 1.37221e-05, Final residual = 1.59999e-07, No Iterations 1
smoothSolver:  Solving for e, Initial residual = 3.648e-06, Final residual = 3.55269e-08, No Iterations 1
DICPCG:  Solving for p, Initial residual = 0.000592621, Final residual = 9.27304e-07, No Iterations 63
diagonal:  Solving for rho, Initial residual = 0, Final residual = 0, No Iterations 0
time step continuity errors : sum local = 3.77026e-10, global = -1.19361e-11, cumulative = 8.06826e-08
PIMPLE: Iteration 2
smoothSolver:  Solving for Ux, Initial residual = 3.35505e-07, Final residual = 3.35505e-07, No Iterations 0
smoothSolver:  Solving for Uy, Initial residual = 1.74215e-06, Final residual = 2.1412e-08, No Iterations 1
smoothSolver:  Solving for e, Initial residual = 2.42959e-07, Final residual = 2.42959e-07, No Iterations 0
DICPCG:  Solving for p, Initial residual = 1.32451e-05, Final residual = 9.93009e-07, No Iterations 38
diagonal:  Solving for rho, Initial residual = 0, Final residual = 0, No Iterations 0
time step continuity errors : sum local = 4.03654e-10, global = -3.65416e-11, cumulative = 8.0646e-08
PIMPLE: Iteration 3
smoothSolver:  Solving for Ux, Initial residual = 4.78596e-08, Final residual = 4.78596e-08, No Iterations 0
smoothSolver:  Solving for Uy, Initial residual = 1.21069e-06, Final residual = 1.73264e-08, No Iterations 1
smoothSolver:  Solving for e, Initial residual = 2.44905e-07, Final residual = 2.44905e-07, No Iterations 0
DICPCG:  Solving for p, Initial residual = 3.29694e-06, Final residual = 9.70992e-07, No Iterations 3
diagonal:  Solving for rho, Initial residual = 0, Final residual = 0, No Iterations 0
time step continuity errors : sum local = 3.94545e-10, global = -3.56663e-11, cumulative = 8.06104e-08
smoothSolver:  Solving for k, Initial residual = 1.68236e-05, Final residual = 8.006e-08, No Iterations 1
bounding k, min: 0 max: 1.9142 average: 0.323587
ExecutionTime = 355.99 s  ClockTime = 366 s

Courant Number mean: 0.318407 max: 0.536792
Time = 5.995

PIMPLE: Iteration 1
diagonal:  Solving for rho, Initial residual = 0, Final residual = 0, No Iterations 0
smoothSolver:  Solving for Ux, Initial residual = 1.96664e-05, Final residual = 1.70191e-07, No Iterations 1
smoothSolver:  Solving for Uy, Initial residual = 1.33701e-05, Final residual = 1.48385e-07, No Iterations 1
smoothSolver:  Solving for e, Initial residual = 3.57503e-06, Final residual = 3.47086e-08, No Iterations 1
DICPCG:  Solving for p, Initial residual = 0.000715414, Final residual = 9.22153e-07, No Iterations 64
diagonal:  Solving for rho, Initial residual = 0, Final residual = 0, No Iterations 0
time step continuity errors : sum local = 3.74796e-10, global = -2.11516e-11, cumulative = 8.05892e-08
PIMPLE: Iteration 2
smoothSolver:  Solving for Ux, Initial residual = 8.29042e-07, Final residual = 8.29042e-07, No Iterations 0
smoothSolver:  Solving for Uy, Initial residual = 1.85045e-06, Final residual = 2.40986e-08, No Iterations 1
smoothSolver:  Solving for e, Initial residual = 1.69015e-07, Final residual = 1.69015e-07, No Iterations 0
DICPCG:  Solving for p, Initial residual = 1.80039e-05, Final residual = 9.62485e-07, No Iterations 40
diagonal:  Solving for rho, Initial residual = 0, Final residual = 0, No Iterations 0
time step continuity errors : sum local = 3.90691e-10, global = -3.77803e-11, cumulative = 8.05514e-08
PIMPLE: Iteration 3
smoothSolver:  Solving for Ux, Initial residual = 1.04573e-07, Final residual = 1.04573e-07, No Iterations 0
smoothSolver:  Solving for Uy, Initial residual = 1.2043e-06, Final residual = 1.72028e-08, No Iterations 1
smoothSolver:  Solving for e, Initial residual = 1.6618e-07, Final residual = 1.6618e-07, No Iterations 0
DICPCG:  Solving for p, Initial residual = 3.80799e-06, Final residual = 8.17157e-07, No Iterations 17
diagonal:  Solving for rho, Initial residual = 0, Final residual = 0, No Iterations 0
time step continuity errors : sum local = 3.3176e-10, global = 7.69846e-13, cumulative = 8.05522e-08
smoothSolver:  Solving for k, Initial residual = 1.78758e-05, Final residual = 8.20106e-08, No Iterations 1
bounding k, min: 0 max: 1.9142 average: 0.323585
ExecutionTime = 356.15 s  ClockTime = 366 s

Courant Number mean: 0.318402 max: 0.536792
Time = 6

PIMPLE: Iteration 1
diagonal:  Solving for rho, Initial residual = 0, Final residual = 0, No Iterations 0
smoothSolver:  Solving for Ux, Initial residual = 2.05577e-05, Final residual = 1.7767e-07, No Iterations 1
smoothSolver:  Solving for Uy, Initial residual = 1.26955e-05, Final residual = 1.38638e-07, No Iterations 1
smoothSolver:  Solving for e, Initial residual = 3.57674e-06, Final residual = 3.44657e-08, No Iterations 1
DICPCG:  Solving for p, Initial residual = 0.000749789, Final residual = 9.38852e-07, No Iterations 59
diagonal:  Solving for rho, Initial residual = 0, Final residual = 0, No Iterations 0
time step continuity errors : sum local = 3.80979e-10, global = -2.59268e-11, cumulative = 8.05263e-08
PIMPLE: Iteration 2
smoothSolver:  Solving for Ux, Initial residual = 1.02958e-06, Final residual = 8.37977e-09, No Iterations 1
smoothSolver:  Solving for Uy, Initial residual = 1.98326e-06, Final residual = 2.56834e-08, No Iterations 1
smoothSolver:  Solving for e, Initial residual = 1.18249e-07, Final residual = 1.18249e-07, No Iterations 0
DICPCG:  Solving for p, Initial residual = 2.20565e-05, Final residual = 9.35116e-07, No Iterations 41
diagonal:  Solving for rho, Initial residual = 0, Final residual = 0, No Iterations 0
time step continuity errors : sum local = 3.79045e-10, global = -3.62698e-11, cumulative = 8.049e-08
PIMPLE: Iteration 3
smoothSolver:  Solving for Ux, Initial residual = 2.94785e-08, Final residual = 2.94785e-08, No Iterations 0
smoothSolver:  Solving for Uy, Initial residual = 1.18974e-06, Final residual = 1.69433e-08, No Iterations 1
smoothSolver:  Solving for e, Initial residual = 1.20741e-07, Final residual = 1.20741e-07, No Iterations 0
DICPCG:  Solving for p, Initial residual = 3.25925e-06, Final residual = 8.42952e-07, No Iterations 2
diagonal:  Solving for rho, Initial residual = 0, Final residual = 0, No Iterations 0
time step continuity errors : sum local = 3.41648e-10, global = 4.65411e-11, cumulative = 8.05366e-08
smoothSolver:  Solving for k, Initial residual = 1.84729e-05, Final residual = 8.70639e-08, No Iterations 1
bounding k, min: 0 max: 1.9142 average: 0.323582
ExecutionTime = 356.71 s  ClockTime = 367 s

End

