/*---------------------------------------------------------------------------*\
  =========                 |
  \\      /  F ield         | OpenFOAM: The Open Source CFD Toolbox
   \\    /   O peration     | Website:  https://openfoam.org
    \\  /    A nd           | Version:  7
     \\/     M anipulation  |
\*---------------------------------------------------------------------------*/
Build  : 7-49b2b3b8b082
Exec   : buoyantPimpleFoam
Date   : Mar 24 2023
Time   : 08:27:16
Host   : "c401-091.stampede2.tacc.utexas.edu"
PID    : 474
I/O    : uncollated
Case   : /home1/08376/lew2547/CooliestModel/src/CFD/hotRoom
nProcs : 1
sigFpe : Enabling floating point exception trapping (FOAM_SIGFPE).
fileModificationChecking : Monitoring run-time modified files using timeStampMaster (fileModificationSkew 10)
allowSystemOperations : Allowing user-supplied system call operations

// * * * * * * * * * * * * * * * * * * * * * * * * * * * * * * * * * * * * * //
Create time

Create mesh for time = 0


PIMPLE: No convergence criteria found


PIMPLE: Operating solver in transient mode with 1 outer corrector
PIMPLE: Operating solver in PISO mode


Reading thermophysical properties

Selecting thermodynamics package 
{
    type            heRhoThermo;
    mixture         pureMixture;
    transport       const;
    thermo          hConst;
    equationOfState perfectGas;
    specie          specie;
    energy          sensibleEnthalpy;
}

Reading field U

Reading/calculating face flux field phi

Creating turbulence model

Selecting turbulence model type RAS
Selecting RAS turbulence model kEpsilon
RAS
{
    RASModel        kEpsilon;
    turbulence      on;
    printCoeffs     on;
    Cmu             0.09;
    C1              1.44;
    C2              1.92;
    C3              0;
    sigmak          1;
    sigmaEps        1.3;
}


Reading g

Reading hRef
Calculating field g.h

Reading field p_rgh

Creating field dpdt

Creating field kinetic energy K

No MRF models present

Radiation model not active: radiationProperties not found
Selecting radiationModel none
No finite volume options present
Courant Number mean: 0 max: 0

Starting time loop

Courant Number mean: 0 max: 0
Time = 4

diagonal:  Solving for rho, Initial residual = 0, Final residual = 0, No Iterations 0
DILUPBiCGStab:  Solving for Ux, Initial residual = 0, Final residual = 0, No Iterations 0
DILUPBiCGStab:  Solving for Uy, Initial residual = 1, Final residual = 7.41703e-07, No Iterations 3
DILUPBiCGStab:  Solving for Uz, Initial residual = 0, Final residual = 0, No Iterations 0
DILUPBiCGStab:  Solving for h, Initial residual = 1, Final residual = 7.34008e-07, No Iterations 3
DICPCG:  Solving for p_rgh, Initial residual = 0.95654, Final residual = 0.00823821, No Iterations 4
diagonal:  Solving for rho, Initial residual = 0, Final residual = 0, No Iterations 0
time step continuity errors : sum local = 0.498156, global = 0.00411745, cumulative = 0.00411745
DICPCG:  Solving for p_rgh, Initial residual = 0.828145, Final residual = 3.32119e-09, No Iterations 28
diagonal:  Solving for rho, Initial residual = 0, Final residual = 0, No Iterations 0
time step continuity errors : sum local = 1.91401e-07, global = -7.09465e-08, cumulative = 0.00411738
DILUPBiCGStab:  Solving for epsilon, Initial residual = 0.236547, Final residual = 2.79573e-08, No Iterations 3
DILUPBiCGStab:  Solving for k, Initial residual = 1, Final residual = 4.38213e-07, No Iterations 4
ExecutionTime = 0.23 s  ClockTime = 1 s

Courant Number mean: 4.32512 max: 9.36996
Time = 8

diagonal:  Solving for rho, Initial residual = 0, Final residual = 0, No Iterations 0
DILUPBiCGStab:  Solving for Ux, Initial residual = 0.592545, Final residual = 3.04481e-07, No Iterations 6
DILUPBiCGStab:  Solving for Uy, Initial residual = 0.638485, Final residual = 2.37062e-07, No Iterations 6
DILUPBiCGStab:  Solving for Uz, Initial residual = 0.592545, Final residual = 3.04481e-07, No Iterations 6
DILUPBiCGStab:  Solving for h, Initial residual = 0.579411, Final residual = 9.29107e-07, No Iterations 6
DICPCG:  Solving for p_rgh, Initial residual = 0.902555, Final residual = 0.00698736, No Iterations 6
diagonal:  Solving for rho, Initial residual = 0, Final residual = 0, No Iterations 0
time step continuity errors : sum local = 0.0523276, global = 0.000794562, cumulative = 0.00491194
DICPCG:  Solving for p_rgh, Initial residual = 0.742246, Final residual = 4.75516e-09, No Iterations 27
diagonal:  Solving for rho, Initial residual = 0, Final residual = 0, No Iterations 0
time step continuity errors : sum local = 4.07014e-08, global = 1.46112e-08, cumulative = 0.00491195
DILUPBiCGStab:  Solving for epsilon, Initial residual = 0.242583, Final residual = 2.7745e-07, No Iterations 2
DILUPBiCGStab:  Solving for k, Initial residual = 0.426974, Final residual = 8.8195e-07, No Iterations 3
ExecutionTime = 0.25 s  ClockTime = 1 s

Courant Number mean: 2.44022 max: 5.05655
Time = 12

diagonal:  Solving for rho, Initial residual = 0, Final residual = 0, No Iterations 0
DILUPBiCGStab:  Solving for Ux, Initial residual = 0.338493, Final residual = 1.95475e-07, No Iterations 5
DILUPBiCGStab:  Solving for Uy, Initial residual = 0.731099, Final residual = 2.84541e-07, No Iterations 5
DILUPBiCGStab:  Solving for Uz, Initial residual = 0.338493, Final residual = 1.95475e-07, No Iterations 5
DILUPBiCGStab:  Solving for h, Initial residual = 0.552195, Final residual = 5.31517e-07, No Iterations 5
DICPCG:  Solving for p_rgh, Initial residual = 0.891537, Final residual = 0.00409411, No Iterations 7
diagonal:  Solving for rho, Initial residual = 0, Final residual = 0, No Iterations 0
time step continuity errors : sum local = 0.0175385, global = 0.000480035, cumulative = 0.00539199
DICPCG:  Solving for p_rgh, Initial residual = 0.702133, Final residual = 3.49132e-09, No Iterations 30
diagonal:  Solving for rho, Initial residual = 0, Final residual = 0, No Iterations 0
time step continuity errors : sum local = 1.14384e-08, global = -3.99689e-09, cumulative = 0.00539198
DILUPBiCGStab:  Solving for epsilon, Initial residual = 0.293496, Final residual = 2.51501e-07, No Iterations 2
DILUPBiCGStab:  Solving for k, Initial residual = 0.434918, Final residual = 3.56929e-07, No Iterations 3
ExecutionTime = 0.28 s  ClockTime = 1 s

Courant Number mean: 2.11902 max: 4.45899
Time = 16

diagonal:  Solving for rho, Initial residual = 0, Final residual = 0, No Iterations 0
DILUPBiCGStab:  Solving for Ux, Initial residual = 0.200051, Final residual = 6.18081e-07, No Iterations 4
DILUPBiCGStab:  Solving for Uy, Initial residual = 0.437349, Final residual = 6.7115e-07, No Iterations 4
DILUPBiCGStab:  Solving for Uz, Initial residual = 0.200051, Final residual = 6.181e-07, No Iterations 4
DILUPBiCGStab:  Solving for h, Initial residual = 0.247183, Final residual = 2.56143e-07, No Iterations 4
DICPCG:  Solving for p_rgh, Initial residual = 0.746702, Final residual = 0.00242083, No Iterations 7
diagonal:  Solving for rho, Initial residual = 0, Final residual = 0, No Iterations 0
time step continuity errors : sum local = 0.00311917, global = 0.000146208, cumulative = 0.00553819
DICPCG:  Solving for p_rgh, Initial residual = 0.479287, Final residual = 3.17122e-09, No Iterations 30
diagonal:  Solving for rho, Initial residual = 0, Final residual = 0, No Iterations 0
time step continuity errors : sum local = 3.31268e-09, global = 8.46897e-10, cumulative = 0.00553819
DILUPBiCGStab:  Solving for epsilon, Initial residual = 0.281853, Final residual = 1.1257e-07, No Iterations 2
DILUPBiCGStab:  Solving for k, Initial residual = 0.436399, Final residual = 7.60761e-07, No Iterations 3
ExecutionTime = 0.3 s  ClockTime = 1 s

Courant Number mean: 1.4616 max: 2.63995
Time = 20

diagonal:  Solving for rho, Initial residual = 0, Final residual = 0, No Iterations 0
DILUPBiCGStab:  Solving for Ux, Initial residual = 0.175765, Final residual = 3.40257e-07, No Iterations 3
DILUPBiCGStab:  Solving for Uy, Initial residual = 0.194665, Final residual = 6.80599e-08, No Iterations 4
DILUPBiCGStab:  Solving for Uz, Initial residual = 0.175765, Final residual = 3.40257e-07, No Iterations 3
DILUPBiCGStab:  Solving for h, Initial residual = 0.128776, Final residual = 1.92907e-07, No Iterations 3
DICPCG:  Solving for p_rgh, Initial residual = 0.54922, Final residual = 0.00161432, No Iterations 5
diagonal:  Solving for rho, Initial residual = 0, Final residual = 0, No Iterations 0
time step continuity errors : sum local = 0.000932192, global = 9.34642e-05, cumulative = 0.00563166
DICPCG:  Solving for p_rgh, Initial residual = 0.319597, Final residual = 6.76385e-09, No Iterations 28
diagonal:  Solving for rho, Initial residual = 0, Final residual = 0, No Iterations 0
time step continuity errors : sum local = 2.7153e-09, global = -1.51307e-10, cumulative = 0.00563166
DILUPBiCGStab:  Solving for epsilon, Initial residual = 0.252199, Final residual = 8.89889e-08, No Iterations 2
DILUPBiCGStab:  Solving for k, Initial residual = 0.397236, Final residual = 3.58257e-07, No Iterations 3
ExecutionTime = 0.32 s  ClockTime = 1 s

Courant Number mean: 1.23656 max: 2.24082
Time = 24

diagonal:  Solving for rho, Initial residual = 0, Final residual = 0, No Iterations 0
DILUPBiCGStab:  Solving for Ux, Initial residual = 0.107608, Final residual = 7.82646e-07, No Iterations 3
DILUPBiCGStab:  Solving for Uy, Initial residual = 0.118698, Final residual = 3.44035e-07, No Iterations 3
DILUPBiCGStab:  Solving for Uz, Initial residual = 0.107608, Final residual = 7.82647e-07, No Iterations 3
DILUPBiCGStab:  Solving for h, Initial residual = 0.0820125, Final residual = 8.53496e-07, No Iterations 3
DICPCG:  Solving for p_rgh, Initial residual = 0.271181, Final residual = 0.000998078, No Iterations 7
diagonal:  Solving for rho, Initial residual = 0, Final residual = 0, No Iterations 0
time step continuity errors : sum local = 0.00039176, global = 6.28454e-05, cumulative = 0.0056945
DICPCG:  Solving for p_rgh, Initial residual = 0.11509, Final residual = 1.76807e-09, No Iterations 30
diagonal:  Solving for rho, Initial residual = 0, Final residual = 0, No Iterations 0
time step continuity errors : sum local = 8.69127e-10, global = 1.59675e-11, cumulative = 0.0056945
DILUPBiCGStab:  Solving for epsilon, Initial residual = 0.232762, Final residual = 5.3036e-08, No Iterations 2
DILUPBiCGStab:  Solving for k, Initial residual = 0.371179, Final residual = 1.32666e-07, No Iterations 3
ExecutionTime = 0.34 s  ClockTime = 1 s

Courant Number mean: 1.01821 max: 1.82595
Time = 28

diagonal:  Solving for rho, Initial residual = 0, Final residual = 0, No Iterations 0
DILUPBiCGStab:  Solving for Ux, Initial residual = 0.0991554, Final residual = 4.63804e-07, No Iterations 3
DILUPBiCGStab:  Solving for Uy, Initial residual = 0.101234, Final residual = 6.59027e-07, No Iterations 3
DILUPBiCGStab:  Solving for Uz, Initial residual = 0.0991554, Final residual = 4.63803e-07, No Iterations 3
DILUPBiCGStab:  Solving for h, Initial residual = 0.0661408, Final residual = 6.2257e-07, No Iterations 3
DICPCG:  Solving for p_rgh, Initial residual = 0.255838, Final residual = 0.00170866, No Iterations 4
diagonal:  Solving for rho, Initial residual = 0, Final residual = 0, No Iterations 0
time step continuity errors : sum local = 0.000548537, global = 5.06372e-05, cumulative = 0.00574514
DICPCG:  Solving for p_rgh, Initial residual = 0.103022, Final residual = 1.52754e-09, No Iterations 30
diagonal:  Solving for rho, Initial residual = 0, Final residual = 0, No Iterations 0
time step continuity errors : sum local = 7.87677e-10, global = -6.58311e-12, cumulative = 0.00574514
DILUPBiCGStab:  Solving for epsilon, Initial residual = 0.217396, Final residual = 3.28991e-08, No Iterations 2
DILUPBiCGStab:  Solving for k, Initial residual = 0.348257, Final residual = 5.77653e-08, No Iterations 3
ExecutionTime = 0.36 s  ClockTime = 1 s

Courant Number mean: 0.864077 max: 1.53219
Time = 32

diagonal:  Solving for rho, Initial residual = 0, Final residual = 0, No Iterations 0
DILUPBiCGStab:  Solving for Ux, Initial residual = 0.0860567, Final residual = 1.35783e-07, No Iterations 3
DILUPBiCGStab:  Solving for Uy, Initial residual = 0.0881016, Final residual = 2.43323e-07, No Iterations 3
DILUPBiCGStab:  Solving for Uz, Initial residual = 0.0860567, Final residual = 1.35784e-07, No Iterations 3
DILUPBiCGStab:  Solving for h, Initial residual = 0.0564195, Final residual = 6.65263e-08, No Iterations 3
DICPCG:  Solving for p_rgh, Initial residual = 0.203361, Final residual = 0.00127591, No Iterations 4
diagonal:  Solving for rho, Initial residual = 0, Final residual = 0, No Iterations 0
time step continuity errors : sum local = 0.000350316, global = 4.33939e-05, cumulative = 0.00578853
DICPCG:  Solving for p_rgh, Initial residual = 0.0738032, Final residual = 7.50686e-09, No Iterations 29
diagonal:  Solving for rho, Initial residual = 0, Final residual = 0, No Iterations 0
time step continuity errors : sum local = 1.94307e-09, global = -8.85735e-12, cumulative = 0.00578853
DILUPBiCGStab:  Solving for epsilon, Initial residual = 0.204506, Final residual = 2.13862e-08, No Iterations 2
DILUPBiCGStab:  Solving for k, Initial residual = 0.328703, Final residual = 9.10286e-07, No Iterations 2
ExecutionTime = 0.38 s  ClockTime = 1 s

Courant Number mean: 0.746553 max: 1.30294
Time = 36

diagonal:  Solving for rho, Initial residual = 0, Final residual = 0, No Iterations 0
DILUPBiCGStab:  Solving for Ux, Initial residual = 0.0762933, Final residual = 9.09187e-07, No Iterations 2
DILUPBiCGStab:  Solving for Uy, Initial residual = 0.0776264, Final residual = 9.26508e-08, No Iterations 3
DILUPBiCGStab:  Solving for Uz, Initial residual = 0.0762933, Final residual = 9.09187e-07, No Iterations 2
DILUPBiCGStab:  Solving for h, Initial residual = 0.0509972, Final residual = 2.31846e-07, No Iterations 3
DICPCG:  Solving for p_rgh, Initial residual = 0.165141, Final residual = 0.00117199, No Iterations 4
diagonal:  Solving for rho, Initial residual = 0, Final residual = 0, No Iterations 0
time step continuity errors : sum local = 0.00028472, global = 3.8358e-05, cumulative = 0.00582689
DICPCG:  Solving for p_rgh, Initial residual = 0.0549394, Final residual = 5.58969e-09, No Iterations 29
diagonal:  Solving for rho, Initial residual = 0, Final residual = 0, No Iterations 0
time step continuity errors : sum local = 1.40117e-09, global = -2.48032e-11, cumulative = 0.00582689
DILUPBiCGStab:  Solving for epsilon, Initial residual = 0.193333, Final residual = 1.48106e-08, No Iterations 2
DILUPBiCGStab:  Solving for k, Initial residual = 0.311614, Final residual = 5.36738e-07, No Iterations 2
ExecutionTime = 0.4 s  ClockTime = 1 s

Courant Number mean: 0.655253 max: 1.1428
Time = 40

diagonal:  Solving for rho, Initial residual = 0, Final residual = 0, No Iterations 0
DILUPBiCGStab:  Solving for Ux, Initial residual = 0.0685217, Final residual = 4.4992e-07, No Iterations 2
DILUPBiCGStab:  Solving for Uy, Initial residual = 0.0694977, Final residual = 3.80012e-08, No Iterations 3
DILUPBiCGStab:  Solving for Uz, Initial residual = 0.0685217, Final residual = 4.4992e-07, No Iterations 2
DILUPBiCGStab:  Solving for h, Initial residual = 0.0483827, Final residual = 6.43673e-07, No Iterations 2
DICPCG:  Solving for p_rgh, Initial residual = 0.135921, Final residual = 0.00104789, No Iterations 4
diagonal:  Solving for rho, Initial residual = 0, Final residual = 0, No Iterations 0
time step continuity errors : sum local = 0.000232601, global = 3.43986e-05, cumulative = 0.00586129
DICPCG:  Solving for p_rgh, Initial residual = 0.0413377, Final residual = 4.26751e-09, No Iterations 29
diagonal:  Solving for rho, Initial residual = 0, Final residual = 0, No Iterations 0
time step continuity errors : sum local = 1.20285e-09, global = -8.85529e-13, cumulative = 0.00586129
DILUPBiCGStab:  Solving for epsilon, Initial residual = 0.183573, Final residual = 8.78831e-07, No Iterations 2
DILUPBiCGStab:  Solving for k, Initial residual = 0.295911, Final residual = 3.19064e-07, No Iterations 2
ExecutionTime = 0.42 s  ClockTime = 1 s

Courant Number mean: 0.582809 max: 1.04736
Time = 44

diagonal:  Solving for rho, Initial residual = 0, Final residual = 0, No Iterations 0
DILUPBiCGStab:  Solving for Ux, Initial residual = 0.0626542, Final residual = 2.37211e-07, No Iterations 2
DILUPBiCGStab:  Solving for Uy, Initial residual = 0.0633094, Final residual = 1.89949e-08, No Iterations 3
DILUPBiCGStab:  Solving for Uz, Initial residual = 0.0626542, Final residual = 2.37211e-07, No Iterations 2
DILUPBiCGStab:  Solving for h, Initial residual = 0.049378, Final residual = 3.25314e-07, No Iterations 2
DICPCG:  Solving for p_rgh, Initial residual = 0.116516, Final residual = 0.00108547, No Iterations 4
diagonal:  Solving for rho, Initial residual = 0, Final residual = 0, No Iterations 0
time step continuity errors : sum local = 0.000228328, global = 3.10365e-05, cumulative = 0.00589233
DICPCG:  Solving for p_rgh, Initial residual = 0.0311938, Final residual = 3.38197e-09, No Iterations 29
diagonal:  Solving for rho, Initial residual = 0, Final residual = 0, No Iterations 0
time step continuity errors : sum local = 1.11468e-09, global = -2.68571e-11, cumulative = 0.00589233
DILUPBiCGStab:  Solving for epsilon, Initial residual = 0.174915, Final residual = 7.31545e-07, No Iterations 2
DILUPBiCGStab:  Solving for k, Initial residual = 0.281142, Final residual = 1.88201e-07, No Iterations 2
ExecutionTime = 0.45 s  ClockTime = 1 s

Courant Number mean: 0.524476 max: 0.967091
Time = 48

diagonal:  Solving for rho, Initial residual = 0, Final residual = 0, No Iterations 0
DILUPBiCGStab:  Solving for Ux, Initial residual = 0.0585632, Final residual = 1.40283e-07, No Iterations 2
DILUPBiCGStab:  Solving for Uy, Initial residual = 0.0585073, Final residual = 1.49908e-08, No Iterations 3
DILUPBiCGStab:  Solving for Uz, Initial residual = 0.0585632, Final residual = 1.40283e-07, No Iterations 2
DILUPBiCGStab:  Solving for h, Initial residual = 0.0522501, Final residual = 2.03302e-07, No Iterations 2
DICPCG:  Solving for p_rgh, Initial residual = 0.101004, Final residual = 0.000434954, No Iterations 5
diagonal:  Solving for rho, Initial residual = 0, Final residual = 0, No Iterations 0
time step continuity errors : sum local = 9.02004e-05, global = 2.80254e-05, cumulative = 0.00592035
DICPCG:  Solving for p_rgh, Initial residual = 0.0235334, Final residual = 2.9199e-09, No Iterations 29
diagonal:  Solving for rho, Initial residual = 0, Final residual = 0, No Iterations 0
time step continuity errors : sum local = 1.06298e-09, global = 2.59818e-11, cumulative = 0.00592035
DILUPBiCGStab:  Solving for epsilon, Initial residual = 0.166954, Final residual = 6.41921e-07, No Iterations 2
DILUPBiCGStab:  Solving for k, Initial residual = 0.266808, Final residual = 1.10309e-07, No Iterations 2
ExecutionTime = 0.47 s  ClockTime = 1 s

Courant Number mean: 0.477697 max: 0.898947
Time = 52

diagonal:  Solving for rho, Initial residual = 0, Final residual = 0, No Iterations 0
DILUPBiCGStab:  Solving for Ux, Initial residual = 0.056295, Final residual = 9.64611e-08, No Iterations 2
DILUPBiCGStab:  Solving for Uy, Initial residual = 0.055192, Final residual = 2.11728e-07, No Iterations 2
DILUPBiCGStab:  Solving for Uz, Initial residual = 0.0562951, Final residual = 9.64612e-08, No Iterations 2
DILUPBiCGStab:  Solving for h, Initial residual = 0.0509873, Final residual = 1.17095e-07, No Iterations 2
DICPCG:  Solving for p_rgh, Initial residual = 0.0859518, Final residual = 0.000427771, No Iterations 5
diagonal:  Solving for rho, Initial residual = 0, Final residual = 0, No Iterations 0
time step continuity errors : sum local = 8.92448e-05, global = 2.53467e-05, cumulative = 0.0059457
DICPCG:  Solving for p_rgh, Initial residual = 0.0189691, Final residual = 3.14097e-09, No Iterations 29
diagonal:  Solving for rho, Initial residual = 0, Final residual = 0, No Iterations 0
time step continuity errors : sum local = 1.13675e-09, global = -2.18433e-11, cumulative = 0.0059457
DILUPBiCGStab:  Solving for epsilon, Initial residual = 0.158418, Final residual = 5.6293e-07, No Iterations 2
DILUPBiCGStab:  Solving for k, Initial residual = 0.25211, Final residual = 6.82622e-08, No Iterations 2
ExecutionTime = 0.49 s  ClockTime = 1 s

Courant Number mean: 0.440731 max: 0.83999
Time = 56

diagonal:  Solving for rho, Initial residual = 0, Final residual = 0, No Iterations 0
DILUPBiCGStab:  Solving for Ux, Initial residual = 0.0563072, Final residual = 7.97797e-08, No Iterations 2
DILUPBiCGStab:  Solving for Uy, Initial residual = 0.0521129, Final residual = 9.83864e-08, No Iterations 2
DILUPBiCGStab:  Solving for Uz, Initial residual = 0.0563072, Final residual = 7.97803e-08, No Iterations 2
DILUPBiCGStab:  Solving for h, Initial residual = 0.0618533, Final residual = 1.35966e-07, No Iterations 2
DICPCG:  Solving for p_rgh, Initial residual = 0.118296, Final residual = 0.000674665, No Iterations 5
diagonal:  Solving for rho, Initial residual = 0, Final residual = 0, No Iterations 0
time step continuity errors : sum local = 0.000135143, global = 2.37737e-05, cumulative = 0.00596947
DICPCG:  Solving for p_rgh, Initial residual = 0.018368, Final residual = 6.67124e-09, No Iterations 27
diagonal:  Solving for rho, Initial residual = 0, Final residual = 0, No Iterations 0
time step continuity errors : sum local = 1.60698e-09, global = 3.09236e-11, cumulative = 0.00596947
DILUPBiCGStab:  Solving for epsilon, Initial residual = 0.148928, Final residual = 4.94773e-07, No Iterations 2
DILUPBiCGStab:  Solving for k, Initial residual = 0.237952, Final residual = 4.2491e-08, No Iterations 2
ExecutionTime = 0.51 s  ClockTime = 1 s

Courant Number mean: 0.409148 max: 0.786488
Time = 60

diagonal:  Solving for rho, Initial residual = 0, Final residual = 0, No Iterations 0
DILUPBiCGStab:  Solving for Ux, Initial residual = 0.0699681, Final residual = 8.51549e-08, No Iterations 2
DILUPBiCGStab:  Solving for Uy, Initial residual = 0.0596757, Final residual = 8.91169e-08, No Iterations 2
DILUPBiCGStab:  Solving for Uz, Initial residual = 0.069968, Final residual = 8.51564e-08, No Iterations 2
DILUPBiCGStab:  Solving for h, Initial residual = 0.0864091, Final residual = 1.22325e-07, No Iterations 2
DICPCG:  Solving for p_rgh, Initial residual = 0.154284, Final residual = 0.000812195, No Iterations 5
diagonal:  Solving for rho, Initial residual = 0, Final residual = 0, No Iterations 0
time step continuity errors : sum local = 0.000159658, global = 2.29907e-05, cumulative = 0.00599246
DICPCG:  Solving for p_rgh, Initial residual = 0.023661, Final residual = 4.59745e-09, No Iterations 29
diagonal:  Solving for rho, Initial residual = 0, Final residual = 0, No Iterations 0
time step continuity errors : sum local = 1.33327e-09, global = 1.41322e-11, cumulative = 0.00599246
DILUPBiCGStab:  Solving for epsilon, Initial residual = 0.141221, Final residual = 3.71212e-07, No Iterations 2
DILUPBiCGStab:  Solving for k, Initial residual = 0.225451, Final residual = 3.04654e-08, No Iterations 2
ExecutionTime = 0.54 s  ClockTime = 1 s

Courant Number mean: 0.380798 max: 0.901071
Time = 64

diagonal:  Solving for rho, Initial residual = 0, Final residual = 0, No Iterations 0
DILUPBiCGStab:  Solving for Ux, Initial residual = 0.0829161, Final residual = 5.16618e-08, No Iterations 2
DILUPBiCGStab:  Solving for Uy, Initial residual = 0.0742137, Final residual = 2.22112e-07, No Iterations 2
DILUPBiCGStab:  Solving for Uz, Initial residual = 0.0829162, Final residual = 5.16619e-08, No Iterations 2
DILUPBiCGStab:  Solving for h, Initial residual = 0.100906, Final residual = 8.90556e-08, No Iterations 2
DICPCG:  Solving for p_rgh, Initial residual = 0.168115, Final residual = 0.00122346, No Iterations 5
diagonal:  Solving for rho, Initial residual = 0, Final residual = 0, No Iterations 0
time step continuity errors : sum local = 0.000251635, global = 2.24776e-05, cumulative = 0.00601494
DICPCG:  Solving for p_rgh, Initial residual = 0.0286504, Final residual = 5.89925e-09, No Iterations 29
diagonal:  Solving for rho, Initial residual = 0, Final residual = 0, No Iterations 0
time step continuity errors : sum local = 1.59539e-09, global = -4.2642e-12, cumulative = 0.00601494
DILUPBiCGStab:  Solving for epsilon, Initial residual = 0.135286, Final residual = 2.16307e-07, No Iterations 2
DILUPBiCGStab:  Solving for k, Initial residual = 0.213308, Final residual = 3.18366e-08, No Iterations 2
ExecutionTime = 0.56 s  ClockTime = 1 s

Courant Number mean: 0.35588 max: 1.16582
Time = 68

diagonal:  Solving for rho, Initial residual = 0, Final residual = 0, No Iterations 0
DILUPBiCGStab:  Solving for Ux, Initial residual = 0.0925574, Final residual = 5.23396e-08, No Iterations 2
DILUPBiCGStab:  Solving for Uy, Initial residual = 0.0824847, Final residual = 1.35955e-07, No Iterations 2
DILUPBiCGStab:  Solving for Uz, Initial residual = 0.0925574, Final residual = 5.23396e-08, No Iterations 2
DILUPBiCGStab:  Solving for h, Initial residual = 0.0910261, Final residual = 7.91224e-08, No Iterations 2
DICPCG:  Solving for p_rgh, Initial residual = 0.171137, Final residual = 0.00146755, No Iterations 5
diagonal:  Solving for rho, Initial residual = 0, Final residual = 0, No Iterations 0
time step continuity errors : sum local = 0.000316521, global = 2.19682e-05, cumulative = 0.00603691
DICPCG:  Solving for p_rgh, Initial residual = 0.0314435, Final residual = 6.54207e-09, No Iterations 29
diagonal:  Solving for rho, Initial residual = 0, Final residual = 0, No Iterations 0
time step continuity errors : sum local = 1.73937e-09, global = 3.90967e-11, cumulative = 0.00603691
DILUPBiCGStab:  Solving for epsilon, Initial residual = 0.126188, Final residual = 1.60152e-07, No Iterations 2
DILUPBiCGStab:  Solving for k, Initial residual = 0.19892, Final residual = 4.41577e-08, No Iterations 2
ExecutionTime = 0.58 s  ClockTime = 1 s

Courant Number mean: 0.333359 max: 1.34865
Time = 72

diagonal:  Solving for rho, Initial residual = 0, Final residual = 0, No Iterations 0
DILUPBiCGStab:  Solving for Ux, Initial residual = 0.10712, Final residual = 6.33978e-08, No Iterations 2
DILUPBiCGStab:  Solving for Uy, Initial residual = 0.0938881, Final residual = 5.1515e-08, No Iterations 2
DILUPBiCGStab:  Solving for Uz, Initial residual = 0.10712, Final residual = 6.33977e-08, No Iterations 2
DILUPBiCGStab:  Solving for h, Initial residual = 0.080244, Final residual = 1.42926e-07, No Iterations 2
DICPCG:  Solving for p_rgh, Initial residual = 0.200981, Final residual = 0.00136969, No Iterations 5
diagonal:  Solving for rho, Initial residual = 0, Final residual = 0, No Iterations 0
time step continuity errors : sum local = 0.000321255, global = 2.1401e-05, cumulative = 0.00605831
DICPCG:  Solving for p_rgh, Initial residual = 0.0325408, Final residual = 8.46901e-09, No Iterations 29
diagonal:  Solving for rho, Initial residual = 0, Final residual = 0, No Iterations 0
time step continuity errors : sum local = 2.36224e-09, global = 2.49064e-11, cumulative = 0.00605831
DILUPBiCGStab:  Solving for epsilon, Initial residual = 0.116761, Final residual = 1.00366e-08, No Iterations 2
DILUPBiCGStab:  Solving for k, Initial residual = 0.184527, Final residual = 3.61967e-08, No Iterations 2
ExecutionTime = 0.6 s  ClockTime = 1 s

Courant Number mean: 0.316106 max: 1.4374
Time = 76

diagonal:  Solving for rho, Initial residual = 0, Final residual = 0, No Iterations 0
DILUPBiCGStab:  Solving for Ux, Initial residual = 0.131279, Final residual = 7.74462e-08, No Iterations 2
DILUPBiCGStab:  Solving for Uy, Initial residual = 0.102747, Final residual = 4.17403e-08, No Iterations 2
DILUPBiCGStab:  Solving for Uz, Initial residual = 0.131279, Final residual = 7.74463e-08, No Iterations 2
DILUPBiCGStab:  Solving for h, Initial residual = 0.0824363, Final residual = 1.63402e-07, No Iterations 2
DICPCG:  Solving for p_rgh, Initial residual = 0.205559, Final residual = 0.00118875, No Iterations 5
diagonal:  Solving for rho, Initial residual = 0, Final residual = 0, No Iterations 0
time step continuity errors : sum local = 0.00030464, global = 2.08114e-05, cumulative = 0.00607912
DICPCG:  Solving for p_rgh, Initial residual = 0.0349364, Final residual = 9.57371e-09, No Iterations 29
diagonal:  Solving for rho, Initial residual = 0, Final residual = 0, No Iterations 0
time step continuity errors : sum local = 2.76416e-09, global = 9.8632e-12, cumulative = 0.00607912
DILUPBiCGStab:  Solving for epsilon, Initial residual = 0.105241, Final residual = 4.81547e-07, No Iterations 2
DILUPBiCGStab:  Solving for k, Initial residual = 0.169517, Final residual = 5.37008e-08, No Iterations 2
ExecutionTime = 0.62 s  ClockTime = 1 s

Courant Number mean: 0.303578 max: 1.46409
Time = 80

diagonal:  Solving for rho, Initial residual = 0, Final residual = 0, No Iterations 0
DILUPBiCGStab:  Solving for Ux, Initial residual = 0.153512, Final residual = 1.83356e-07, No Iterations 2
DILUPBiCGStab:  Solving for Uy, Initial residual = 0.109476, Final residual = 4.10574e-08, No Iterations 2
DILUPBiCGStab:  Solving for Uz, Initial residual = 0.153512, Final residual = 1.83356e-07, No Iterations 2
DILUPBiCGStab:  Solving for h, Initial residual = 0.0816113, Final residual = 1.26809e-07, No Iterations 2
DICPCG:  Solving for p_rgh, Initial residual = 0.200956, Final residual = 0.000962385, No Iterations 5
diagonal:  Solving for rho, Initial residual = 0, Final residual = 0, No Iterations 0
time step continuity errors : sum local = 0.000266196, global = 2.01606e-05, cumulative = 0.00609928
DICPCG:  Solving for p_rgh, Initial residual = 0.0365886, Final residual = 7.24366e-09, No Iterations 29
diagonal:  Solving for rho, Initial residual = 0, Final residual = 0, No Iterations 0
time step continuity errors : sum local = 2.28785e-09, global = 1.02649e-11, cumulative = 0.00609928
DILUPBiCGStab:  Solving for epsilon, Initial residual = 0.0935088, Final residual = 2.46827e-07, No Iterations 2
DILUPBiCGStab:  Solving for k, Initial residual = 0.155084, Final residual = 5.93507e-08, No Iterations 2
ExecutionTime = 0.64 s  ClockTime = 1 s

Courant Number mean: 0.295434 max: 1.58683
Time = 84

diagonal:  Solving for rho, Initial residual = 0, Final residual = 0, No Iterations 0
DILUPBiCGStab:  Solving for Ux, Initial residual = 0.171856, Final residual = 2.6401e-07, No Iterations 2
DILUPBiCGStab:  Solving for Uy, Initial residual = 0.114832, Final residual = 5.41697e-08, No Iterations 2
DILUPBiCGStab:  Solving for Uz, Initial residual = 0.171856, Final residual = 2.64013e-07, No Iterations 2
DILUPBiCGStab:  Solving for h, Initial residual = 0.0795489, Final residual = 1.08341e-07, No Iterations 2
DICPCG:  Solving for p_rgh, Initial residual = 0.196812, Final residual = 0.000672172, No Iterations 5
diagonal:  Solving for rho, Initial residual = 0, Final residual = 0, No Iterations 0
time step continuity errors : sum local = 0.00019173, global = 1.93835e-05, cumulative = 0.00611866
DICPCG:  Solving for p_rgh, Initial residual = 0.0405705, Final residual = 5.03262e-09, No Iterations 28
diagonal:  Solving for rho, Initial residual = 0, Final residual = 0, No Iterations 0
time step continuity errors : sum local = 1.79977e-09, global = 4.51116e-12, cumulative = 0.00611866
DILUPBiCGStab:  Solving for epsilon, Initial residual = 0.0736994, Final residual = 2.24802e-07, No Iterations 2
DILUPBiCGStab:  Solving for k, Initial residual = 0.136615, Final residual = 5.29349e-08, No Iterations 2
ExecutionTime = 0.66 s  ClockTime = 1 s

Courant Number mean: 0.294571 max: 1.6424
Time = 88

diagonal:  Solving for rho, Initial residual = 0, Final residual = 0, No Iterations 0
DILUPBiCGStab:  Solving for Ux, Initial residual = 0.181192, Final residual = 4.99405e-07, No Iterations 2
DILUPBiCGStab:  Solving for Uy, Initial residual = 0.116593, Final residual = 6.55987e-08, No Iterations 2
DILUPBiCGStab:  Solving for Uz, Initial residual = 0.181192, Final residual = 4.99398e-07, No Iterations 2
DILUPBiCGStab:  Solving for h, Initial residual = 0.0779599, Final residual = 1.03499e-07, No Iterations 2
DICPCG:  Solving for p_rgh, Initial residual = 0.193268, Final residual = 0.000741734, No Iterations 5
diagonal:  Solving for rho, Initial residual = 0, Final residual = 0, No Iterations 0
time step continuity errors : sum local = 0.000205435, global = 1.85152e-05, cumulative = 0.00613718
DICPCG:  Solving for p_rgh, Initial residual = 0.0441984, Final residual = 2.3417e-09, No Iterations 30
diagonal:  Solving for rho, Initial residual = 0, Final residual = 0, No Iterations 0
time step continuity errors : sum local = 1.21669e-09, global = -3.44983e-12, cumulative = 0.00613718
DILUPBiCGStab:  Solving for epsilon, Initial residual = 0.0658117, Final residual = 1.42883e-07, No Iterations 2
DILUPBiCGStab:  Solving for k, Initial residual = 0.12552, Final residual = 5.54456e-08, No Iterations 2
ExecutionTime = 0.69 s  ClockTime = 1 s

Courant Number mean: 0.299375 max: 1.64111
Time = 92

diagonal:  Solving for rho, Initial residual = 0, Final residual = 0, No Iterations 0
DILUPBiCGStab:  Solving for Ux, Initial residual = 0.178712, Final residual = 4.36902e-07, No Iterations 2
DILUPBiCGStab:  Solving for Uy, Initial residual = 0.121549, Final residual = 7.77318e-08, No Iterations 2
DILUPBiCGStab:  Solving for Uz, Initial residual = 0.178712, Final residual = 4.36894e-07, No Iterations 2
DILUPBiCGStab:  Solving for h, Initial residual = 0.0744122, Final residual = 9.37719e-08, No Iterations 2
DICPCG:  Solving for p_rgh, Initial residual = 0.206596, Final residual = 0.000776366, No Iterations 5
diagonal:  Solving for rho, Initial residual = 0, Final residual = 0, No Iterations 0
time step continuity errors : sum local = 0.000203805, global = 1.75743e-05, cumulative = 0.00615475
DICPCG:  Solving for p_rgh, Initial residual = 0.0444046, Final residual = 2.1592e-09, No Iterations 30
diagonal:  Solving for rho, Initial residual = 0, Final residual = 0, No Iterations 0
time step continuity errors : sum local = 1.25112e-09, global = -3.38102e-11, cumulative = 0.00615475
DILUPBiCGStab:  Solving for epsilon, Initial residual = 0.0592151, Final residual = 1.1663e-07, No Iterations 2
DILUPBiCGStab:  Solving for k, Initial residual = 0.115815, Final residual = 5.94414e-08, No Iterations 2
ExecutionTime = 0.71 s  ClockTime = 1 s

Courant Number mean: 0.307075 max: 1.60705
Time = 96

diagonal:  Solving for rho, Initial residual = 0, Final residual = 0, No Iterations 0
DILUPBiCGStab:  Solving for Ux, Initial residual = 0.171725, Final residual = 9.92552e-08, No Iterations 2
DILUPBiCGStab:  Solving for Uy, Initial residual = 0.120022, Final residual = 7.47103e-08, No Iterations 2
DILUPBiCGStab:  Solving for Uz, Initial residual = 0.171725, Final residual = 9.92552e-08, No Iterations 2
DILUPBiCGStab:  Solving for h, Initial residual = 0.0699783, Final residual = 8.63419e-08, No Iterations 2
DICPCG:  Solving for p_rgh, Initial residual = 0.201867, Final residual = 0.000892821, No Iterations 5
diagonal:  Solving for rho, Initial residual = 0, Final residual = 0, No Iterations 0
time step continuity errors : sum local = 0.000225444, global = 1.66233e-05, cumulative = 0.00617138
DICPCG:  Solving for p_rgh, Initial residual = 0.0434686, Final residual = 2.0532e-09, No Iterations 30
diagonal:  Solving for rho, Initial residual = 0, Final residual = 0, No Iterations 0
time step continuity errors : sum local = 1.17476e-09, global = 7.30429e-12, cumulative = 0.00617138
DILUPBiCGStab:  Solving for epsilon, Initial residual = 0.0545929, Final residual = 1.62445e-07, No Iterations 2
DILUPBiCGStab:  Solving for k, Initial residual = 0.108304, Final residual = 5.36132e-08, No Iterations 2
ExecutionTime = 0.73 s  ClockTime = 1 s

Courant Number mean: 0.31434 max: 1.57242
Time = 100

diagonal:  Solving for rho, Initial residual = 0, Final residual = 0, No Iterations 0
DILUPBiCGStab:  Solving for Ux, Initial residual = 0.161244, Final residual = 7.86031e-08, No Iterations 2
DILUPBiCGStab:  Solving for Uy, Initial residual = 0.116093, Final residual = 6.51871e-08, No Iterations 2
DILUPBiCGStab:  Solving for Uz, Initial residual = 0.161244, Final residual = 7.86028e-08, No Iterations 2
DILUPBiCGStab:  Solving for h, Initial residual = 0.0646396, Final residual = 9.96649e-08, No Iterations 2
DICPCG:  Solving for p_rgh, Initial residual = 0.206059, Final residual = 0.000922964, No Iterations 5
diagonal:  Solving for rho, Initial residual = 0, Final residual = 0, No Iterations 0
time step continuity errors : sum local = 0.000228664, global = 1.5719e-05, cumulative = 0.0061871
DICPCG:  Solving for p_rgh, Initial residual = 0.04035, Final residual = 1.74822e-09, No Iterations 30
diagonal:  Solving for rho, Initial residual = 0, Final residual = 0, No Iterations 0
time step continuity errors : sum local = 1.14888e-09, global = -4.94233e-12, cumulative = 0.0061871
DILUPBiCGStab:  Solving for epsilon, Initial residual = 0.0500604, Final residual = 3.6655e-07, No Iterations 2
DILUPBiCGStab:  Solving for k, Initial residual = 0.100886, Final residual = 5.87817e-08, No Iterations 2
ExecutionTime = 0.75 s  ClockTime = 1 s

Courant Number mean: 0.320602 max: 1.54263
Time = 104

diagonal:  Solving for rho, Initial residual = 0, Final residual = 0, No Iterations 0
DILUPBiCGStab:  Solving for Ux, Initial residual = 0.150208, Final residual = 6.1415e-08, No Iterations 2
DILUPBiCGStab:  Solving for Uy, Initial residual = 0.10767, Final residual = 6.03618e-08, No Iterations 2
DILUPBiCGStab:  Solving for Uz, Initial residual = 0.150208, Final residual = 6.1415e-08, No Iterations 2
DILUPBiCGStab:  Solving for h, Initial residual = 0.059295, Final residual = 1.17536e-07, No Iterations 2
DICPCG:  Solving for p_rgh, Initial residual = 0.184068, Final residual = 0.000960145, No Iterations 5
diagonal:  Solving for rho, Initial residual = 0, Final residual = 0, No Iterations 0
time step continuity errors : sum local = 0.000238889, global = 1.48827e-05, cumulative = 0.00620198
DICPCG:  Solving for p_rgh, Initial residual = 0.0370316, Final residual = 1.91782e-09, No Iterations 30
diagonal:  Solving for rho, Initial residual = 0, Final residual = 0, No Iterations 0
time step continuity errors : sum local = 1.20589e-09, global = 9.19001e-12, cumulative = 0.00620198
DILUPBiCGStab:  Solving for epsilon, Initial residual = 0.0458061, Final residual = 4.05012e-08, No Iterations 2
DILUPBiCGStab:  Solving for k, Initial residual = 0.0950871, Final residual = 6.35863e-08, No Iterations 2
ExecutionTime = 0.77 s  ClockTime = 1 s

Courant Number mean: 0.326216 max: 1.51942
Time = 108

diagonal:  Solving for rho, Initial residual = 0, Final residual = 0, No Iterations 0
DILUPBiCGStab:  Solving for Ux, Initial residual = 0.135882, Final residual = 5.10077e-08, No Iterations 2
DILUPBiCGStab:  Solving for Uy, Initial residual = 0.102502, Final residual = 5.50248e-08, No Iterations 2
DILUPBiCGStab:  Solving for Uz, Initial residual = 0.135882, Final residual = 5.10076e-08, No Iterations 2
DILUPBiCGStab:  Solving for h, Initial residual = 0.0550844, Final residual = 1.24123e-07, No Iterations 2
DICPCG:  Solving for p_rgh, Initial residual = 0.163834, Final residual = 0.000951836, No Iterations 5
diagonal:  Solving for rho, Initial residual = 0, Final residual = 0, No Iterations 0
time step continuity errors : sum local = 0.000242461, global = 1.41154e-05, cumulative = 0.00621609
DICPCG:  Solving for p_rgh, Initial residual = 0.0323438, Final residual = 1.80408e-09, No Iterations 30
diagonal:  Solving for rho, Initial residual = 0, Final residual = 0, No Iterations 0
time step continuity errors : sum local = 1.17506e-09, global = -2.73527e-11, cumulative = 0.00621609
DILUPBiCGStab:  Solving for epsilon, Initial residual = 0.042468, Final residual = 2.15898e-08, No Iterations 2
DILUPBiCGStab:  Solving for k, Initial residual = 0.0902158, Final residual = 6.56197e-08, No Iterations 2
ExecutionTime = 0.79 s  ClockTime = 1 s

Courant Number mean: 0.331402 max: 1.50012
Time = 112

diagonal:  Solving for rho, Initial residual = 0, Final residual = 0, No Iterations 0
DILUPBiCGStab:  Solving for Ux, Initial residual = 0.121078, Final residual = 4.22923e-08, No Iterations 2
DILUPBiCGStab:  Solving for Uy, Initial residual = 0.0963957, Final residual = 5.0994e-08, No Iterations 2
DILUPBiCGStab:  Solving for Uz, Initial residual = 0.121078, Final residual = 4.22923e-08, No Iterations 2
DILUPBiCGStab:  Solving for h, Initial residual = 0.0511899, Final residual = 1.24093e-07, No Iterations 2
DICPCG:  Solving for p_rgh, Initial residual = 0.144822, Final residual = 0.000912524, No Iterations 5
diagonal:  Solving for rho, Initial residual = 0, Final residual = 0, No Iterations 0
time step continuity errors : sum local = 0.00023667, global = 1.34047e-05, cumulative = 0.0062295
DICPCG:  Solving for p_rgh, Initial residual = 0.0277979, Final residual = 9.00895e-09, No Iterations 29
diagonal:  Solving for rho, Initial residual = 0, Final residual = 0, No Iterations 0
time step continuity errors : sum local = 2.60707e-09, global = -3.61361e-11, cumulative = 0.0062295
DILUPBiCGStab:  Solving for epsilon, Initial residual = 0.0397213, Final residual = 9.20513e-07, No Iterations 2
DILUPBiCGStab:  Solving for k, Initial residual = 0.0859911, Final residual = 6.58748e-08, No Iterations 2
ExecutionTime = 0.81 s  ClockTime = 1 s

Courant Number mean: 0.335933 max: 1.48304
Time = 116

diagonal:  Solving for rho, Initial residual = 0, Final residual = 0, No Iterations 0
DILUPBiCGStab:  Solving for Ux, Initial residual = 0.108676, Final residual = 3.43278e-08, No Iterations 2
DILUPBiCGStab:  Solving for Uy, Initial residual = 0.0919223, Final residual = 4.64897e-08, No Iterations 2
DILUPBiCGStab:  Solving for Uz, Initial residual = 0.108676, Final residual = 3.43279e-08, No Iterations 2
DILUPBiCGStab:  Solving for h, Initial residual = 0.0479555, Final residual = 1.12634e-07, No Iterations 2
DICPCG:  Solving for p_rgh, Initial residual = 0.126333, Final residual = 0.000862212, No Iterations 5
diagonal:  Solving for rho, Initial residual = 0, Final residual = 0, No Iterations 0
time step continuity errors : sum local = 0.000224611, global = 1.27447e-05, cumulative = 0.00624224
DICPCG:  Solving for p_rgh, Initial residual = 0.0246306, Final residual = 5.09652e-09, No Iterations 29
diagonal:  Solving for rho, Initial residual = 0, Final residual = 0, No Iterations 0
time step continuity errors : sum local = 1.73004e-09, global = 1.41764e-11, cumulative = 0.00624224
DILUPBiCGStab:  Solving for epsilon, Initial residual = 0.0374577, Final residual = 8.96845e-07, No Iterations 2
DILUPBiCGStab:  Solving for k, Initial residual = 0.0824521, Final residual = 6.60177e-08, No Iterations 2
ExecutionTime = 0.83 s  ClockTime = 1 s

Courant Number mean: 0.34043 max: 1.46752
Time = 120

diagonal:  Solving for rho, Initial residual = 0, Final residual = 0, No Iterations 0
DILUPBiCGStab:  Solving for Ux, Initial residual = 0.0947532, Final residual = 8.64712e-07, No Iterations 2
DILUPBiCGStab:  Solving for Uy, Initial residual = 0.0880593, Final residual = 4.0032e-08, No Iterations 2
DILUPBiCGStab:  Solving for Uz, Initial residual = 0.0947533, Final residual = 8.64714e-07, No Iterations 2
DILUPBiCGStab:  Solving for h, Initial residual = 0.0457686, Final residual = 9.86035e-08, No Iterations 2
DICPCG:  Solving for p_rgh, Initial residual = 0.112685, Final residual = 0.000846439, No Iterations 5
diagonal:  Solving for rho, Initial residual = 0, Final residual = 0, No Iterations 0
time step continuity errors : sum local = 0.000218505, global = 1.21492e-05, cumulative = 0.00625439
DICPCG:  Solving for p_rgh, Initial residual = 0.0219027, Final residual = 6.58074e-09, No Iterations 29
diagonal:  Solving for rho, Initial residual = 0, Final residual = 0, No Iterations 0
time step continuity errors : sum local = 2.00959e-09, global = -6.77802e-11, cumulative = 0.00625439
DILUPBiCGStab:  Solving for epsilon, Initial residual = 0.035512, Final residual = 1.79387e-08, No Iterations 2
DILUPBiCGStab:  Solving for k, Initial residual = 0.0795601, Final residual = 6.58004e-08, No Iterations 2
ExecutionTime = 0.85 s  ClockTime = 1 s

Courant Number mean: 0.345183 max: 1.45341
Time = 124

diagonal:  Solving for rho, Initial residual = 0, Final residual = 0, No Iterations 0
DILUPBiCGStab:  Solving for Ux, Initial residual = 0.0847402, Final residual = 6.94197e-07, No Iterations 2
DILUPBiCGStab:  Solving for Uy, Initial residual = 0.0825513, Final residual = 3.3178e-08, No Iterations 2
DILUPBiCGStab:  Solving for Uz, Initial residual = 0.0847401, Final residual = 6.94196e-07, No Iterations 2
DILUPBiCGStab:  Solving for h, Initial residual = 0.0432942, Final residual = 8.3202e-08, No Iterations 2
DICPCG:  Solving for p_rgh, Initial residual = 0.103726, Final residual = 0.00081381, No Iterations 5
diagonal:  Solving for rho, Initial residual = 0, Final residual = 0, No Iterations 0
time step continuity errors : sum local = 0.000206599, global = 1.15921e-05, cumulative = 0.00626599
DICPCG:  Solving for p_rgh, Initial residual = 0.0191406, Final residual = 4.78289e-09, No Iterations 27
diagonal:  Solving for rho, Initial residual = 0, Final residual = 0, No Iterations 0
time step continuity errors : sum local = 1.58974e-09, global = 2.57196e-11, cumulative = 0.00626599
DILUPBiCGStab:  Solving for epsilon, Initial residual = 0.0339692, Final residual = 2.43281e-08, No Iterations 2
DILUPBiCGStab:  Solving for k, Initial residual = 0.0769099, Final residual = 6.46398e-08, No Iterations 2
ExecutionTime = 0.87 s  ClockTime = 1 s

Courant Number mean: 0.349615 max: 1.43994
Time = 128

diagonal:  Solving for rho, Initial residual = 0, Final residual = 0, No Iterations 0
DILUPBiCGStab:  Solving for Ux, Initial residual = 0.0748522, Final residual = 5.67788e-07, No Iterations 2
DILUPBiCGStab:  Solving for Uy, Initial residual = 0.0768004, Final residual = 2.70655e-08, No Iterations 2
DILUPBiCGStab:  Solving for Uz, Initial residual = 0.0748521, Final residual = 5.67786e-07, No Iterations 2
DILUPBiCGStab:  Solving for h, Initial residual = 0.0412296, Final residual = 6.47142e-08, No Iterations 2
DICPCG:  Solving for p_rgh, Initial residual = 0.0940888, Final residual = 0.000747565, No Iterations 5
diagonal:  Solving for rho, Initial residual = 0, Final residual = 0, No Iterations 0
time step continuity errors : sum local = 0.000185479, global = 1.10758e-05, cumulative = 0.00627706
DICPCG:  Solving for p_rgh, Initial residual = 0.0171133, Final residual = 4.79565e-09, No Iterations 29
diagonal:  Solving for rho, Initial residual = 0, Final residual = 0, No Iterations 0
time step continuity errors : sum local = 1.59001e-09, global = -1.53212e-11, cumulative = 0.00627706
DILUPBiCGStab:  Solving for epsilon, Initial residual = 0.0324139, Final residual = 3.64518e-08, No Iterations 2
DILUPBiCGStab:  Solving for k, Initial residual = 0.0747247, Final residual = 6.26756e-08, No Iterations 2
ExecutionTime = 0.89 s  ClockTime = 1 s

Courant Number mean: 0.353055 max: 1.4273
Time = 132

diagonal:  Solving for rho, Initial residual = 0, Final residual = 0, No Iterations 0
DILUPBiCGStab:  Solving for Ux, Initial residual = 0.0644047, Final residual = 4.76066e-07, No Iterations 2
DILUPBiCGStab:  Solving for Uy, Initial residual = 0.0720525, Final residual = 9.83009e-07, No Iterations 2
DILUPBiCGStab:  Solving for Uz, Initial residual = 0.0644046, Final residual = 4.76066e-07, No Iterations 2
DILUPBiCGStab:  Solving for h, Initial residual = 0.039129, Final residual = 5.1203e-08, No Iterations 2
DICPCG:  Solving for p_rgh, Initial residual = 0.0860474, Final residual = 0.000668583, No Iterations 5
diagonal:  Solving for rho, Initial residual = 0, Final residual = 0, No Iterations 0
time step continuity errors : sum local = 0.000160678, global = 1.05918e-05, cumulative = 0.00628765
DICPCG:  Solving for p_rgh, Initial residual = 0.0151903, Final residual = 3.40408e-09, No Iterations 29
diagonal:  Solving for rho, Initial residual = 0, Final residual = 0, No Iterations 0
time step continuity errors : sum local = 1.41349e-09, global = -1.13188e-11, cumulative = 0.00628765
DILUPBiCGStab:  Solving for epsilon, Initial residual = 0.0309179, Final residual = 6.90459e-08, No Iterations 2
DILUPBiCGStab:  Solving for k, Initial residual = 0.0726605, Final residual = 5.99286e-08, No Iterations 2
ExecutionTime = 0.92 s  ClockTime = 2 s

Courant Number mean: 0.355241 max: 1.41482
Time = 136

diagonal:  Solving for rho, Initial residual = 0, Final residual = 0, No Iterations 0
DILUPBiCGStab:  Solving for Ux, Initial residual = 0.0567326, Final residual = 4.10179e-07, No Iterations 2
DILUPBiCGStab:  Solving for Uy, Initial residual = 0.0677137, Final residual = 9.06293e-07, No Iterations 2
DILUPBiCGStab:  Solving for Uz, Initial residual = 0.0567326, Final residual = 4.10177e-07, No Iterations 2
DILUPBiCGStab:  Solving for h, Initial residual = 0.0368338, Final residual = 4.32359e-08, No Iterations 2
DICPCG:  Solving for p_rgh, Initial residual = 0.0763819, Final residual = 0.000645124, No Iterations 5
diagonal:  Solving for rho, Initial residual = 0, Final residual = 0, No Iterations 0
time step continuity errors : sum local = 0.000150489, global = 1.01515e-05, cumulative = 0.0062978
DICPCG:  Solving for p_rgh, Initial residual = 0.0135676, Final residual = 2.75283e-09, No Iterations 29
diagonal:  Solving for rho, Initial residual = 0, Final residual = 0, No Iterations 0
time step continuity errors : sum local = 1.2721e-09, global = 1.04598e-11, cumulative = 0.0062978
DILUPBiCGStab:  Solving for epsilon, Initial residual = 0.0295708, Final residual = 5.49126e-07, No Iterations 2
DILUPBiCGStab:  Solving for k, Initial residual = 0.0706581, Final residual = 5.67671e-08, No Iterations 2
ExecutionTime = 0.94 s  ClockTime = 2 s

Courant Number mean: 0.355962 max: 1.40252
Time = 140

diagonal:  Solving for rho, Initial residual = 0, Final residual = 0, No Iterations 0
DILUPBiCGStab:  Solving for Ux, Initial residual = 0.0499938, Final residual = 3.45541e-07, No Iterations 2
DILUPBiCGStab:  Solving for Uy, Initial residual = 0.0635467, Final residual = 8.52668e-07, No Iterations 2
DILUPBiCGStab:  Solving for Uz, Initial residual = 0.0499938, Final residual = 3.45547e-07, No Iterations 2
DILUPBiCGStab:  Solving for h, Initial residual = 0.0347985, Final residual = 4.33807e-08, No Iterations 2
DICPCG:  Solving for p_rgh, Initial residual = 0.0690209, Final residual = 0.000537873, No Iterations 5
diagonal:  Solving for rho, Initial residual = 0, Final residual = 0, No Iterations 0
time step continuity errors : sum local = 0.000122366, global = 9.74145e-06, cumulative = 0.00630755
DICPCG:  Solving for p_rgh, Initial residual = 0.0125686, Final residual = 1.9132e-09, No Iterations 29
diagonal:  Solving for rho, Initial residual = 0, Final residual = 0, No Iterations 0
time step continuity errors : sum local = 1.18261e-09, global = -2.02754e-11, cumulative = 0.00630755
DILUPBiCGStab:  Solving for epsilon, Initial residual = 0.0283748, Final residual = 8.75479e-08, No Iterations 2
DILUPBiCGStab:  Solving for k, Initial residual = 0.069201, Final residual = 5.32631e-08, No Iterations 2
ExecutionTime = 0.96 s  ClockTime = 2 s

Courant Number mean: 0.354963 max: 1.39037
Time = 144

diagonal:  Solving for rho, Initial residual = 0, Final residual = 0, No Iterations 0
DILUPBiCGStab:  Solving for Ux, Initial residual = 0.0442027, Final residual = 3.04946e-07, No Iterations 2
DILUPBiCGStab:  Solving for Uy, Initial residual = 0.0593141, Final residual = 7.79801e-07, No Iterations 2
DILUPBiCGStab:  Solving for Uz, Initial residual = 0.0442027, Final residual = 3.04946e-07, No Iterations 2
DILUPBiCGStab:  Solving for h, Initial residual = 0.0331256, Final residual = 6.71767e-08, No Iterations 2
DICPCG:  Solving for p_rgh, Initial residual = 0.0617574, Final residual = 0.000507335, No Iterations 5
diagonal:  Solving for rho, Initial residual = 0, Final residual = 0, No Iterations 0
time step continuity errors : sum local = 0.000112748, global = 9.3695e-06, cumulative = 0.00631692
DICPCG:  Solving for p_rgh, Initial residual = 0.0116672, Final residual = 8.58784e-09, No Iterations 28
diagonal:  Solving for rho, Initial residual = 0, Final residual = 0, No Iterations 0
time step continuity errors : sum local = 2.16583e-09, global = 4.41127e-11, cumulative = 0.00631692
DILUPBiCGStab:  Solving for epsilon, Initial residual = 0.0272971, Final residual = 3.99619e-08, No Iterations 2
DILUPBiCGStab:  Solving for k, Initial residual = 0.0677736, Final residual = 4.96182e-08, No Iterations 2
ExecutionTime = 0.98 s  ClockTime = 2 s

Courant Number mean: 0.352131 max: 1.37802
Time = 148

diagonal:  Solving for rho, Initial residual = 0, Final residual = 0, No Iterations 0
DILUPBiCGStab:  Solving for Ux, Initial residual = 0.0397801, Final residual = 2.73297e-07, No Iterations 2
DILUPBiCGStab:  Solving for Uy, Initial residual = 0.0557093, Final residual = 7.19571e-07, No Iterations 2
DILUPBiCGStab:  Solving for Uz, Initial residual = 0.0397801, Final residual = 2.73298e-07, No Iterations 2
DILUPBiCGStab:  Solving for h, Initial residual = 0.031515, Final residual = 1.10703e-07, No Iterations 2
DICPCG:  Solving for p_rgh, Initial residual = 0.0537426, Final residual = 0.000457346, No Iterations 5
diagonal:  Solving for rho, Initial residual = 0, Final residual = 0, No Iterations 0
time step continuity errors : sum local = 9.94776e-05, global = 9.03048e-06, cumulative = 0.00632595
DICPCG:  Solving for p_rgh, Initial residual = 0.0107331, Final residual = 8.55813e-09, No Iterations 28
diagonal:  Solving for rho, Initial residual = 0, Final residual = 0, No Iterations 0
time step continuity errors : sum local = 2.25361e-09, global = -1.27515e-11, cumulative = 0.00632595
DILUPBiCGStab:  Solving for epsilon, Initial residual = 0.0262929, Final residual = 2.56839e-08, No Iterations 2
DILUPBiCGStab:  Solving for k, Initial residual = 0.0664208, Final residual = 4.59175e-08, No Iterations 2
ExecutionTime = 1 s  ClockTime = 2 s

Courant Number mean: 0.347721 max: 1.3656
Time = 152

diagonal:  Solving for rho, Initial residual = 0, Final residual = 0, No Iterations 0
DILUPBiCGStab:  Solving for Ux, Initial residual = 0.0364678, Final residual = 2.47091e-07, No Iterations 2
DILUPBiCGStab:  Solving for Uy, Initial residual = 0.0516121, Final residual = 6.68652e-07, No Iterations 2
DILUPBiCGStab:  Solving for Uz, Initial residual = 0.0364679, Final residual = 2.47088e-07, No Iterations 2
DILUPBiCGStab:  Solving for h, Initial residual = 0.0299345, Final residual = 7.84762e-07, No Iterations 2
DICPCG:  Solving for p_rgh, Initial residual = 0.0475229, Final residual = 0.000367579, No Iterations 5
diagonal:  Solving for rho, Initial residual = 0, Final residual = 0, No Iterations 0
time step continuity errors : sum local = 7.84717e-05, global = 8.72177e-06, cumulative = 0.00633467
DICPCG:  Solving for p_rgh, Initial residual = 0.00978941, Final residual = 6.75254e-09, No Iterations 28
diagonal:  Solving for rho, Initial residual = 0, Final residual = 0, No Iterations 0
time step continuity errors : sum local = 1.82941e-09, global = 3.79526e-11, cumulative = 0.00633467
DILUPBiCGStab:  Solving for epsilon, Initial residual = 0.0254031, Final residual = 1.88171e-08, No Iterations 2
DILUPBiCGStab:  Solving for k, Initial residual = 0.0651683, Final residual = 4.2192e-08, No Iterations 2
ExecutionTime = 1.03 s  ClockTime = 2 s

Courant Number mean: 0.342334 max: 1.35309
Time = 156

diagonal:  Solving for rho, Initial residual = 0, Final residual = 0, No Iterations 0
DILUPBiCGStab:  Solving for Ux, Initial residual = 0.0339897, Final residual = 2.24563e-07, No Iterations 2
DILUPBiCGStab:  Solving for Uy, Initial residual = 0.047154, Final residual = 6.86509e-07, No Iterations 2
DILUPBiCGStab:  Solving for Uz, Initial residual = 0.0339897, Final residual = 2.24566e-07, No Iterations 2
DILUPBiCGStab:  Solving for h, Initial residual = 0.0285529, Final residual = 5.49739e-07, No Iterations 2
DICPCG:  Solving for p_rgh, Initial residual = 0.0426185, Final residual = 0.000318152, No Iterations 5
diagonal:  Solving for rho, Initial residual = 0, Final residual = 0, No Iterations 0
time step continuity errors : sum local = 6.67076e-05, global = 8.44003e-06, cumulative = 0.00634311
DICPCG:  Solving for p_rgh, Initial residual = 0.00892576, Final residual = 3.82411e-09, No Iterations 26
diagonal:  Solving for rho, Initial residual = 0, Final residual = 0, No Iterations 0
time step continuity errors : sum local = 1.26782e-09, global = -5.16661e-11, cumulative = 0.00634311
DILUPBiCGStab:  Solving for epsilon, Initial residual = 0.0245975, Final residual = 8.50234e-07, No Iterations 2
DILUPBiCGStab:  Solving for k, Initial residual = 0.0640683, Final residual = 3.86508e-08, No Iterations 2
ExecutionTime = 1.05 s  ClockTime = 2 s

Courant Number mean: 0.336152 max: 1.34075
Time = 160

diagonal:  Solving for rho, Initial residual = 0, Final residual = 0, No Iterations 0
DILUPBiCGStab:  Solving for Ux, Initial residual = 0.0315689, Final residual = 1.97581e-07, No Iterations 2
DILUPBiCGStab:  Solving for Uy, Initial residual = 0.0431676, Final residual = 2.87604e-08, No Iterations 2
DILUPBiCGStab:  Solving for Uz, Initial residual = 0.031569, Final residual = 1.97567e-07, No Iterations 2
DILUPBiCGStab:  Solving for h, Initial residual = 0.02745, Final residual = 4.54614e-07, No Iterations 2
DICPCG:  Solving for p_rgh, Initial residual = 0.0377161, Final residual = 0.000297049, No Iterations 5
diagonal:  Solving for rho, Initial residual = 0, Final residual = 0, No Iterations 0
time step continuity errors : sum local = 6.12535e-05, global = 8.1808e-06, cumulative = 0.00635129
DICPCG:  Solving for p_rgh, Initial residual = 0.00802729, Final residual = 4.95189e-09, No Iterations 28
diagonal:  Solving for rho, Initial residual = 0, Final residual = 0, No Iterations 0
time step continuity errors : sum local = 1.49679e-09, global = -6.36798e-12, cumulative = 0.00635129
DILUPBiCGStab:  Solving for epsilon, Initial residual = 0.0238626, Final residual = 6.66495e-07, No Iterations 2
DILUPBiCGStab:  Solving for k, Initial residual = 0.0629241, Final residual = 3.52484e-08, No Iterations 2
ExecutionTime = 1.07 s  ClockTime = 2 s

Courant Number mean: 0.329632 max: 1.32855
Time = 164

diagonal:  Solving for rho, Initial residual = 0, Final residual = 0, No Iterations 0
DILUPBiCGStab:  Solving for Ux, Initial residual = 0.02945, Final residual = 1.43521e-07, No Iterations 2
DILUPBiCGStab:  Solving for Uy, Initial residual = 0.039602, Final residual = 3.07905e-07, No Iterations 2
DILUPBiCGStab:  Solving for Uz, Initial residual = 0.0294499, Final residual = 1.43518e-07, No Iterations 2
DILUPBiCGStab:  Solving for h, Initial residual = 0.0264022, Final residual = 3.8852e-07, No Iterations 2
DICPCG:  Solving for p_rgh, Initial residual = 0.0336237, Final residual = 0.000218548, No Iterations 5
diagonal:  Solving for rho, Initial residual = 0, Final residual = 0, No Iterations 0
time step continuity errors : sum local = 4.43947e-05, global = 7.94135e-06, cumulative = 0.00635923
DICPCG:  Solving for p_rgh, Initial residual = 0.00720844, Final residual = 5.44023e-09, No Iterations 28
diagonal:  Solving for rho, Initial residual = 0, Final residual = 0, No Iterations 0
time step continuity errors : sum local = 1.57825e-09, global = 6.81755e-13, cumulative = 0.00635923
DILUPBiCGStab:  Solving for epsilon, Initial residual = 0.023181, Final residual = 5.27903e-07, No Iterations 2
DILUPBiCGStab:  Solving for k, Initial residual = 0.0618261, Final residual = 9.26774e-07, No Iterations 2
ExecutionTime = 1.09 s  ClockTime = 2 s

Courant Number mean: 0.322587 max: 1.31666
Time = 168

diagonal:  Solving for rho, Initial residual = 0, Final residual = 0, No Iterations 0
DILUPBiCGStab:  Solving for Ux, Initial residual = 0.0273345, Final residual = 5.61151e-07, No Iterations 2
DILUPBiCGStab:  Solving for Uy, Initial residual = 0.0368345, Final residual = 2.97755e-07, No Iterations 2
DILUPBiCGStab:  Solving for Uz, Initial residual = 0.0273346, Final residual = 5.613e-07, No Iterations 2
DILUPBiCGStab:  Solving for h, Initial residual = 0.0254592, Final residual = 3.32102e-07, No Iterations 2
DICPCG:  Solving for p_rgh, Initial residual = 0.0296658, Final residual = 0.000180048, No Iterations 5
diagonal:  Solving for rho, Initial residual = 0, Final residual = 0, No Iterations 0
time step continuity errors : sum local = 3.60526e-05, global = 7.71719e-06, cumulative = 0.00636695
DICPCG:  Solving for p_rgh, Initial residual = 0.0064666, Final residual = 4.89655e-09, No Iterations 28
diagonal:  Solving for rho, Initial residual = 0, Final residual = 0, No Iterations 0
time step continuity errors : sum local = 1.41889e-09, global = -2.63195e-11, cumulative = 0.00636695
DILUPBiCGStab:  Solving for epsilon, Initial residual = 0.0225119, Final residual = 4.23424e-07, No Iterations 2
DILUPBiCGStab:  Solving for k, Initial residual = 0.0606768, Final residual = 8.50065e-07, No Iterations 2
ExecutionTime = 1.11 s  ClockTime = 2 s

Courant Number mean: 0.315 max: 1.30502
Time = 172

diagonal:  Solving for rho, Initial residual = 0, Final residual = 0, No Iterations 0
DILUPBiCGStab:  Solving for Ux, Initial residual = 0.0257022, Final residual = 2.79155e-07, No Iterations 2
DILUPBiCGStab:  Solving for Uy, Initial residual = 0.0342906, Final residual = 2.95076e-07, No Iterations 2
DILUPBiCGStab:  Solving for Uz, Initial residual = 0.0257021, Final residual = 2.79122e-07, No Iterations 2
DILUPBiCGStab:  Solving for h, Initial residual = 0.0246101, Final residual = 2.91563e-07, No Iterations 2
DICPCG:  Solving for p_rgh, Initial residual = 0.0267571, Final residual = 0.00016529, No Iterations 5
diagonal:  Solving for rho, Initial residual = 0, Final residual = 0, No Iterations 0
time step continuity errors : sum local = 3.26487e-05, global = 7.50993e-06, cumulative = 0.00637446
DICPCG:  Solving for p_rgh, Initial residual = 0.00588804, Final residual = 4.09341e-09, No Iterations 28
diagonal:  Solving for rho, Initial residual = 0, Final residual = 0, No Iterations 0
time step continuity errors : sum local = 1.44104e-09, global = 3.5451e-11, cumulative = 0.00637446
DILUPBiCGStab:  Solving for epsilon, Initial residual = 0.0218571, Final residual = 3.42918e-07, No Iterations 2
DILUPBiCGStab:  Solving for k, Initial residual = 0.0595116, Final residual = 7.7817e-07, No Iterations 2
ExecutionTime = 1.13 s  ClockTime = 2 s

Courant Number mean: 0.307057 max: 1.29365
Time = 176

diagonal:  Solving for rho, Initial residual = 0, Final residual = 0, No Iterations 0
DILUPBiCGStab:  Solving for Ux, Initial residual = 0.024365, Final residual = 2.52608e-07, No Iterations 2
DILUPBiCGStab:  Solving for Uy, Initial residual = 0.032791, Final residual = 2.9296e-07, No Iterations 2
DILUPBiCGStab:  Solving for Uz, Initial residual = 0.0243649, Final residual = 2.52643e-07, No Iterations 2
DILUPBiCGStab:  Solving for h, Initial residual = 0.0236939, Final residual = 3.05807e-07, No Iterations 2
DICPCG:  Solving for p_rgh, Initial residual = 0.0245582, Final residual = 0.000143731, No Iterations 5
diagonal:  Solving for rho, Initial residual = 0, Final residual = 0, No Iterations 0
time step continuity errors : sum local = 2.80246e-05, global = 7.31464e-06, cumulative = 0.00638177
DICPCG:  Solving for p_rgh, Initial residual = 0.00542717, Final residual = 2.75151e-09, No Iterations 28
diagonal:  Solving for rho, Initial residual = 0, Final residual = 0, No Iterations 0
time step continuity errors : sum local = 1.29261e-09, global = -1.42746e-11, cumulative = 0.00638177
DILUPBiCGStab:  Solving for epsilon, Initial residual = 0.0212147, Final residual = 2.7767e-07, No Iterations 2
DILUPBiCGStab:  Solving for k, Initial residual = 0.0583214, Final residual = 7.08116e-07, No Iterations 2
ExecutionTime = 1.15 s  ClockTime = 2 s

Courant Number mean: 0.298725 max: 1.28252
Time = 180

diagonal:  Solving for rho, Initial residual = 0, Final residual = 0, No Iterations 0
DILUPBiCGStab:  Solving for Ux, Initial residual = 0.0234847, Final residual = 2.41366e-07, No Iterations 2
DILUPBiCGStab:  Solving for Uy, Initial residual = 0.0317036, Final residual = 2.94946e-07, No Iterations 2
DILUPBiCGStab:  Solving for Uz, Initial residual = 0.0234847, Final residual = 2.41371e-07, No Iterations 2
DILUPBiCGStab:  Solving for h, Initial residual = 0.022703, Final residual = 8.62519e-07, No Iterations 2
DICPCG:  Solving for p_rgh, Initial residual = 0.0223908, Final residual = 0.000129638, No Iterations 5
diagonal:  Solving for rho, Initial residual = 0, Final residual = 0, No Iterations 0
time step continuity errors : sum local = 2.4984e-05, global = 7.13181e-06, cumulative = 0.0063889
DICPCG:  Solving for p_rgh, Initial residual = 0.00497838, Final residual = 9.43407e-09, No Iterations 27
diagonal:  Solving for rho, Initial residual = 0, Final residual = 0, No Iterations 0
time step continuity errors : sum local = 2.18129e-09, global = -2.47954e-11, cumulative = 0.0063889
DILUPBiCGStab:  Solving for epsilon, Initial residual = 0.0205802, Final residual = 2.23044e-07, No Iterations 2
DILUPBiCGStab:  Solving for k, Initial residual = 0.0570876, Final residual = 6.40116e-07, No Iterations 2
ExecutionTime = 1.17 s  ClockTime = 2 s

Courant Number mean: 0.290093 max: 1.27169
Time = 184

diagonal:  Solving for rho, Initial residual = 0, Final residual = 0, No Iterations 0
DILUPBiCGStab:  Solving for Ux, Initial residual = 0.0228383, Final residual = 2.40264e-07, No Iterations 2
DILUPBiCGStab:  Solving for Uy, Initial residual = 0.0306664, Final residual = 2.96008e-07, No Iterations 2
DILUPBiCGStab:  Solving for Uz, Initial residual = 0.0228384, Final residual = 2.40244e-07, No Iterations 2
DILUPBiCGStab:  Solving for h, Initial residual = 0.0217978, Final residual = 5.2625e-07, No Iterations 2
DICPCG:  Solving for p_rgh, Initial residual = 0.0208518, Final residual = 0.00011629, No Iterations 5
diagonal:  Solving for rho, Initial residual = 0, Final residual = 0, No Iterations 0
time step continuity errors : sum local = 2.21957e-05, global = 6.95921e-06, cumulative = 0.00639586
DICPCG:  Solving for p_rgh, Initial residual = 0.00458391, Final residual = 8.07866e-09, No Iterations 27
diagonal:  Solving for rho, Initial residual = 0, Final residual = 0, No Iterations 0
time step continuity errors : sum local = 1.93472e-09, global = 1.67311e-11, cumulative = 0.00639586
DILUPBiCGStab:  Solving for epsilon, Initial residual = 0.0199274, Final residual = 1.77815e-07, No Iterations 2
DILUPBiCGStab:  Solving for k, Initial residual = 0.0557287, Final residual = 5.73508e-07, No Iterations 2
ExecutionTime = 1.19 s  ClockTime = 2 s

Courant Number mean: 0.281351 max: 1.2611
Time = 188

diagonal:  Solving for rho, Initial residual = 0, Final residual = 0, No Iterations 0
DILUPBiCGStab:  Solving for Ux, Initial residual = 0.022369, Final residual = 2.46459e-07, No Iterations 2
DILUPBiCGStab:  Solving for Uy, Initial residual = 0.029669, Final residual = 2.81976e-07, No Iterations 2
DILUPBiCGStab:  Solving for Uz, Initial residual = 0.022369, Final residual = 2.46459e-07, No Iterations 2
DILUPBiCGStab:  Solving for h, Initial residual = 0.0208263, Final residual = 2.69909e-07, No Iterations 2
DICPCG:  Solving for p_rgh, Initial residual = 0.0198505, Final residual = 0.000106931, No Iterations 5
diagonal:  Solving for rho, Initial residual = 0, Final residual = 0, No Iterations 0
time step continuity errors : sum local = 2.02255e-05, global = 6.80001e-06, cumulative = 0.00640266
DICPCG:  Solving for p_rgh, Initial residual = 0.00422848, Final residual = 7.99416e-09, No Iterations 27
diagonal:  Solving for rho, Initial residual = 0, Final residual = 0, No Iterations 0
time step continuity errors : sum local = 1.86726e-09, global = 3.90501e-12, cumulative = 0.00640266
DILUPBiCGStab:  Solving for epsilon, Initial residual = 0.0192561, Final residual = 1.40943e-07, No Iterations 2
DILUPBiCGStab:  Solving for k, Initial residual = 0.0542298, Final residual = 5.09694e-07, No Iterations 2
ExecutionTime = 1.21 s  ClockTime = 2 s

Courant Number mean: 0.272705 max: 1.25078
Time = 192

diagonal:  Solving for rho, Initial residual = 0, Final residual = 0, No Iterations 0
DILUPBiCGStab:  Solving for Ux, Initial residual = 0.0219954, Final residual = 2.53601e-07, No Iterations 2
DILUPBiCGStab:  Solving for Uy, Initial residual = 0.0290069, Final residual = 2.66442e-07, No Iterations 2
DILUPBiCGStab:  Solving for Uz, Initial residual = 0.0219953, Final residual = 2.536e-07, No Iterations 2
DILUPBiCGStab:  Solving for h, Initial residual = 0.0198918, Final residual = 2.37542e-07, No Iterations 2
DICPCG:  Solving for p_rgh, Initial residual = 0.0189095, Final residual = 0.00010213, No Iterations 5
diagonal:  Solving for rho, Initial residual = 0, Final residual = 0, No Iterations 0
time step continuity errors : sum local = 1.91386e-05, global = 6.65702e-06, cumulative = 0.00640932
DICPCG:  Solving for p_rgh, Initial residual = 0.00391728, Final residual = 7.12046e-09, No Iterations 27
diagonal:  Solving for rho, Initial residual = 0, Final residual = 0, No Iterations 0
time step continuity errors : sum local = 1.69633e-09, global = 2.72432e-11, cumulative = 0.00640932
DILUPBiCGStab:  Solving for epsilon, Initial residual = 0.0185556, Final residual = 1.10182e-07, No Iterations 2
DILUPBiCGStab:  Solving for k, Initial residual = 0.0526079, Final residual = 4.51402e-07, No Iterations 2
ExecutionTime = 1.24 s  ClockTime = 2 s

Courant Number mean: 0.264244 max: 1.24078
Time = 196

diagonal:  Solving for rho, Initial residual = 0, Final residual = 0, No Iterations 0
DILUPBiCGStab:  Solving for Ux, Initial residual = 0.0217443, Final residual = 2.59117e-07, No Iterations 2
DILUPBiCGStab:  Solving for Uy, Initial residual = 0.0285267, Final residual = 2.41588e-07, No Iterations 2
DILUPBiCGStab:  Solving for Uz, Initial residual = 0.0217444, Final residual = 2.59147e-07, No Iterations 2
DILUPBiCGStab:  Solving for h, Initial residual = 0.0190005, Final residual = 2.49373e-07, No Iterations 2
DICPCG:  Solving for p_rgh, Initial residual = 0.0183748, Final residual = 0.000112886, No Iterations 5
diagonal:  Solving for rho, Initial residual = 0, Final residual = 0, No Iterations 0
time step continuity errors : sum local = 2.09518e-05, global = 6.53064e-06, cumulative = 0.00641585
DICPCG:  Solving for p_rgh, Initial residual = 0.00359316, Final residual = 6.44283e-09, No Iterations 27
diagonal:  Solving for rho, Initial residual = 0, Final residual = 0, No Iterations 0
time step continuity errors : sum local = 1.6659e-09, global = 1.47667e-11, cumulative = 0.00641585
DILUPBiCGStab:  Solving for epsilon, Initial residual = 0.017821, Final residual = 8.51601e-08, No Iterations 2
DILUPBiCGStab:  Solving for k, Initial residual = 0.0508528, Final residual = 3.99656e-07, No Iterations 2
ExecutionTime = 1.26 s  ClockTime = 2 s

Courant Number mean: 0.256172 max: 1.2311
Time = 200

diagonal:  Solving for rho, Initial residual = 0, Final residual = 0, No Iterations 0
DILUPBiCGStab:  Solving for Ux, Initial residual = 0.0215205, Final residual = 2.71443e-07, No Iterations 2
DILUPBiCGStab:  Solving for Uy, Initial residual = 0.0282189, Final residual = 2.202e-07, No Iterations 2
DILUPBiCGStab:  Solving for Uz, Initial residual = 0.0215204, Final residual = 2.71458e-07, No Iterations 2
DILUPBiCGStab:  Solving for h, Initial residual = 0.0181645, Final residual = 2.83247e-07, No Iterations 2
DICPCG:  Solving for p_rgh, Initial residual = 0.0179922, Final residual = 0.000120697, No Iterations 5
diagonal:  Solving for rho, Initial residual = 0, Final residual = 0, No Iterations 0
time step continuity errors : sum local = 2.21969e-05, global = 6.42195e-06, cumulative = 0.00642227
DICPCG:  Solving for p_rgh, Initial residual = 0.00330423, Final residual = 4.04707e-09, No Iterations 27
diagonal:  Solving for rho, Initial residual = 0, Final residual = 0, No Iterations 0
time step continuity errors : sum local = 1.38086e-09, global = 1.53646e-11, cumulative = 0.00642227
DILUPBiCGStab:  Solving for epsilon, Initial residual = 0.0170583, Final residual = 6.5429e-08, No Iterations 2
DILUPBiCGStab:  Solving for k, Initial residual = 0.0489807, Final residual = 3.53891e-07, No Iterations 2
ExecutionTime = 1.28 s  ClockTime = 2 s

Courant Number mean: 0.248347 max: 1.22175
Time = 204

diagonal:  Solving for rho, Initial residual = 0, Final residual = 0, No Iterations 0
DILUPBiCGStab:  Solving for Ux, Initial residual = 0.0212072, Final residual = 2.7607e-07, No Iterations 2
DILUPBiCGStab:  Solving for Uy, Initial residual = 0.0279045, Final residual = 2.00034e-07, No Iterations 2
DILUPBiCGStab:  Solving for Uz, Initial residual = 0.0212072, Final residual = 2.76062e-07, No Iterations 2
DILUPBiCGStab:  Solving for h, Initial residual = 0.0173455, Final residual = 3.22844e-07, No Iterations 2
DICPCG:  Solving for p_rgh, Initial residual = 0.01738, Final residual = 0.000129999, No Iterations 5
diagonal:  Solving for rho, Initial residual = 0, Final residual = 0, No Iterations 0
time step continuity errors : sum local = 2.37083e-05, global = 6.32662e-06, cumulative = 0.0064286
DICPCG:  Solving for p_rgh, Initial residual = 0.00304613, Final residual = 6.32052e-09, No Iterations 27
diagonal:  Solving for rho, Initial residual = 0, Final residual = 0, No Iterations 0
time step continuity errors : sum local = 1.61119e-09, global = -2.53788e-11, cumulative = 0.0064286
DILUPBiCGStab:  Solving for epsilon, Initial residual = 0.0162629, Final residual = 4.98803e-08, No Iterations 2
DILUPBiCGStab:  Solving for k, Initial residual = 0.0470149, Final residual = 3.13203e-07, No Iterations 2
ExecutionTime = 1.3 s  ClockTime = 2 s

Courant Number mean: 0.240955 max: 1.21274
Time = 208

diagonal:  Solving for rho, Initial residual = 0, Final residual = 0, No Iterations 0
DILUPBiCGStab:  Solving for Ux, Initial residual = 0.0209534, Final residual = 3.01548e-07, No Iterations 2
DILUPBiCGStab:  Solving for Uy, Initial residual = 0.0275526, Final residual = 1.81774e-07, No Iterations 2
DILUPBiCGStab:  Solving for Uz, Initial residual = 0.0209534, Final residual = 3.01579e-07, No Iterations 2
DILUPBiCGStab:  Solving for h, Initial residual = 0.0166663, Final residual = 3.50595e-07, No Iterations 2
DICPCG:  Solving for p_rgh, Initial residual = 0.0173313, Final residual = 0.000142573, No Iterations 5
diagonal:  Solving for rho, Initial residual = 0, Final residual = 0, No Iterations 0
time step continuity errors : sum local = 2.57802e-05, global = 6.24421e-06, cumulative = 0.00643484
DICPCG:  Solving for p_rgh, Initial residual = 0.00281356, Final residual = 7.24423e-09, No Iterations 25
diagonal:  Solving for rho, Initial residual = 0, Final residual = 0, No Iterations 0
time step continuity errors : sum local = 1.70682e-09, global = -3.66958e-11, cumulative = 0.00643484
DILUPBiCGStab:  Solving for epsilon, Initial residual = 0.0154456, Final residual = 3.78944e-08, No Iterations 2
DILUPBiCGStab:  Solving for k, Initial residual = 0.0449759, Final residual = 2.78358e-07, No Iterations 2
ExecutionTime = 1.33 s  ClockTime = 2 s

Courant Number mean: 0.233908 max: 1.20397
Time = 212

diagonal:  Solving for rho, Initial residual = 0, Final residual = 0, No Iterations 0
DILUPBiCGStab:  Solving for Ux, Initial residual = 0.0206756, Final residual = 3.4005e-07, No Iterations 2
DILUPBiCGStab:  Solving for Uy, Initial residual = 0.0272202, Final residual = 1.78248e-07, No Iterations 2
DILUPBiCGStab:  Solving for Uz, Initial residual = 0.0206755, Final residual = 3.39945e-07, No Iterations 2
DILUPBiCGStab:  Solving for h, Initial residual = 0.016093, Final residual = 3.64492e-07, No Iterations 2
DICPCG:  Solving for p_rgh, Initial residual = 0.017065, Final residual = 0.000164814, No Iterations 5
diagonal:  Solving for rho, Initial residual = 0, Final residual = 0, No Iterations 0
time step continuity errors : sum local = 2.95429e-05, global = 6.17358e-06, cumulative = 0.00644102
DICPCG:  Solving for p_rgh, Initial residual = 0.00259745, Final residual = 5.3589e-09, No Iterations 27
diagonal:  Solving for rho, Initial residual = 0, Final residual = 0, No Iterations 0
time step continuity errors : sum local = 1.43975e-09, global = -6.88331e-12, cumulative = 0.00644102
DILUPBiCGStab:  Solving for epsilon, Initial residual = 0.01461, Final residual = 3.16524e-08, No Iterations 2
DILUPBiCGStab:  Solving for k, Initial residual = 0.0428914, Final residual = 2.48272e-07, No Iterations 2
ExecutionTime = 1.34 s  ClockTime = 2 s

Courant Number mean: 0.2274 max: 1.19539
Time = 216

diagonal:  Solving for rho, Initial residual = 0, Final residual = 0, No Iterations 0
DILUPBiCGStab:  Solving for Ux, Initial residual = 0.0204139, Final residual = 4.24509e-07, No Iterations 2
DILUPBiCGStab:  Solving for Uy, Initial residual = 0.0267975, Final residual = 3.19637e-07, No Iterations 2
DILUPBiCGStab:  Solving for Uz, Initial residual = 0.0204139, Final residual = 4.24121e-07, No Iterations 2
DILUPBiCGStab:  Solving for h, Initial residual = 0.0157074, Final residual = 3.60605e-07, No Iterations 2
DICPCG:  Solving for p_rgh, Initial residual = 0.0171415, Final residual = 0.000169211, No Iterations 5
diagonal:  Solving for rho, Initial residual = 0, Final residual = 0, No Iterations 0
time step continuity errors : sum local = 3.0063e-05, global = 6.10924e-06, cumulative = 0.00644713
DICPCG:  Solving for p_rgh, Initial residual = 0.0024054, Final residual = 5.61133e-09, No Iterations 27
diagonal:  Solving for rho, Initial residual = 0, Final residual = 0, No Iterations 0
time step continuity errors : sum local = 1.52641e-09, global = -1.76748e-11, cumulative = 0.00644713
DILUPBiCGStab:  Solving for epsilon, Initial residual = 0.0137751, Final residual = 2.73436e-08, No Iterations 2
DILUPBiCGStab:  Solving for k, Initial residual = 0.0407881, Final residual = 2.24503e-07, No Iterations 2
ExecutionTime = 1.36 s  ClockTime = 2 s

Courant Number mean: 0.221431 max: 1.18686
Time = 220

diagonal:  Solving for rho, Initial residual = 0, Final residual = 0, No Iterations 0
DILUPBiCGStab:  Solving for Ux, Initial residual = 0.019992, Final residual = 2.72045e-07, No Iterations 2
DILUPBiCGStab:  Solving for Uy, Initial residual = 0.0264349, Final residual = 1.00364e-07, No Iterations 2
DILUPBiCGStab:  Solving for Uz, Initial residual = 0.0199919, Final residual = 2.72227e-07, No Iterations 2
DILUPBiCGStab:  Solving for h, Initial residual = 0.0153903, Final residual = 3.40685e-07, No Iterations 2
DICPCG:  Solving for p_rgh, Initial residual = 0.0171495, Final residual = 0.000122608, No Iterations 6
diagonal:  Solving for rho, Initial residual = 0, Final residual = 0, No Iterations 0
time step continuity errors : sum local = 2.15928e-05, global = 6.05309e-06, cumulative = 0.00645318
DICPCG:  Solving for p_rgh, Initial residual = 0.00223782, Final residual = 5.97053e-09, No Iterations 27
diagonal:  Solving for rho, Initial residual = 0, Final residual = 0, No Iterations 0
time step continuity errors : sum local = 1.55406e-09, global = 4.62717e-12, cumulative = 0.00645318
DILUPBiCGStab:  Solving for epsilon, Initial residual = 0.0129727, Final residual = 2.33074e-08, No Iterations 2
DILUPBiCGStab:  Solving for k, Initial residual = 0.0387088, Final residual = 2.05987e-07, No Iterations 2
ExecutionTime = 1.38 s  ClockTime = 2 s

Courant Number mean: 0.21604 max: 1.1784
Time = 224

diagonal:  Solving for rho, Initial residual = 0, Final residual = 0, No Iterations 0
DILUPBiCGStab:  Solving for Ux, Initial residual = 0.0195598, Final residual = 1.76817e-07, No Iterations 2
[...]
Time = 948

diagonal:  Solving for rho, Initial residual = 0, Final residual = 0, No Iterations 0
DILUPBiCGStab:  Solving for Ux, Initial residual = 0.000603541, Final residual = 2.64304e-08, No Iterations 1
DILUPBiCGStab:  Solving for Uy, Initial residual = 0.000640055, Final residual = 1.49441e-08, No Iterations 1
DILUPBiCGStab:  Solving for Uz, Initial residual = 0.000603404, Final residual = 2.64164e-08, No Iterations 1
DILUPBiCGStab:  Solving for h, Initial residual = 0.00387219, Final residual = 1.77782e-07, No Iterations 1
DICPCG:  Solving for p_rgh, Initial residual = 0.000922649, Final residual = 2.26915e-06, No Iterations 22
diagonal:  Solving for rho, Initial residual = 0, Final residual = 0, No Iterations 0
time step continuity errors : sum local = 2.89316e-07, global = -3.10251e-10, cumulative = 0.00675697
DICPCG:  Solving for p_rgh, Initial residual = 7.90883e-05, Final residual = 7.0293e-09, No Iterations 11
diagonal:  Solving for rho, Initial residual = 0, Final residual = 0, No Iterations 0
time step continuity errors : sum local = 1.29846e-09, global = 9.68051e-12, cumulative = 0.00675697
DILUPBiCGStab:  Solving for epsilon, Initial residual = 0.000458045, Final residual = 9.74957e-07, No Iterations 1
DILUPBiCGStab:  Solving for k, Initial residual = 0.00133932, Final residual = 4.34255e-08, No Iterations 1
ExecutionTime = 5.37 s  ClockTime = 6 s

Courant Number mean: 0.165056 max: 0.669522
Time = 952

diagonal:  Solving for rho, Initial residual = 0, Final residual = 0, No Iterations 0
DILUPBiCGStab:  Solving for Ux, Initial residual = 0.000589435, Final residual = 2.63919e-08, No Iterations 1
DILUPBiCGStab:  Solving for Uy, Initial residual = 0.000624715, Final residual = 1.62061e-08, No Iterations 1
DILUPBiCGStab:  Solving for Uz, Initial residual = 0.000589522, Final residual = 2.64113e-08, No Iterations 1
DILUPBiCGStab:  Solving for h, Initial residual = 0.00387046, Final residual = 1.781e-07, No Iterations 1
DICPCG:  Solving for p_rgh, Initial residual = 0.000915422, Final residual = 7.2347e-06, No Iterations 19
diagonal:  Solving for rho, Initial residual = 0, Final residual = 0, No Iterations 0
time step continuity errors : sum local = 9.22024e-07, global = -2.69954e-10, cumulative = 0.00675696
DICPCG:  Solving for p_rgh, Initial residual = 7.83847e-05, Final residual = 9.12209e-09, No Iterations 11
diagonal:  Solving for rho, Initial residual = 0, Final residual = 0, No Iterations 0
time step continuity errors : sum local = 1.46875e-09, global = 4.95633e-11, cumulative = 0.00675697
DILUPBiCGStab:  Solving for epsilon, Initial residual = 0.000446834, Final residual = 9.28963e-07, No Iterations 1
DILUPBiCGStab:  Solving for k, Initial residual = 0.00130198, Final residual = 4.1489e-08, No Iterations 1
ExecutionTime = 5.39 s  ClockTime = 6 s

Courant Number mean: 0.165013 max: 0.669141
Time = 956

diagonal:  Solving for rho, Initial residual = 0, Final residual = 0, No Iterations 0
DILUPBiCGStab:  Solving for Ux, Initial residual = 0.000576811, Final residual = 2.6387e-08, No Iterations 1
DILUPBiCGStab:  Solving for Uy, Initial residual = 0.000609353, Final residual = 1.75715e-08, No Iterations 1
DILUPBiCGStab:  Solving for Uz, Initial residual = 0.000576904, Final residual = 2.63783e-08, No Iterations 1
DILUPBiCGStab:  Solving for h, Initial residual = 0.00386819, Final residual = 1.78245e-07, No Iterations 1
DICPCG:  Solving for p_rgh, Initial residual = 0.000912275, Final residual = 9.02687e-06, No Iterations 21
diagonal:  Solving for rho, Initial residual = 0, Final residual = 0, No Iterations 0
time step continuity errors : sum local = 1.14965e-06, global = -2.82597e-10, cumulative = 0.00675696
DICPCG:  Solving for p_rgh, Initial residual = 7.74448e-05, Final residual = 6.25391e-09, No Iterations 11
diagonal:  Solving for rho, Initial residual = 0, Final residual = 0, No Iterations 0
time step continuity errors : sum local = 1.21769e-09, global = 3.65453e-11, cumulative = 0.00675696
DILUPBiCGStab:  Solving for epsilon, Initial residual = 0.000435969, Final residual = 8.9601e-07, No Iterations 1
DILUPBiCGStab:  Solving for k, Initial residual = 0.00126534, Final residual = 3.97528e-08, No Iterations 1
ExecutionTime = 5.4 s  ClockTime = 6 s

Courant Number mean: 0.164975 max: 0.668746
Time = 960

diagonal:  Solving for rho, Initial residual = 0, Final residual = 0, No Iterations 0
DILUPBiCGStab:  Solving for Ux, Initial residual = 0.000565961, Final residual = 2.63622e-08, No Iterations 1
DILUPBiCGStab:  Solving for Uy, Initial residual = 0.000595222, Final residual = 1.89571e-08, No Iterations 1
DILUPBiCGStab:  Solving for Uz, Initial residual = 0.000566125, Final residual = 2.63922e-08, No Iterations 1
DILUPBiCGStab:  Solving for h, Initial residual = 0.00386552, Final residual = 1.7822e-07, No Iterations 1
DICPCG:  Solving for p_rgh, Initial residual = 0.00090634, Final residual = 8.45976e-06, No Iterations 20
diagonal:  Solving for rho, Initial residual = 0, Final residual = 0, No Iterations 0
time step continuity errors : sum local = 1.077e-06, global = -2.85749e-10, cumulative = 0.00675696
DICPCG:  Solving for p_rgh, Initial residual = 7.7049e-05, Final residual = 9.8299e-09, No Iterations 11
diagonal:  Solving for rho, Initial residual = 0, Final residual = 0, No Iterations 0
time step continuity errors : sum local = 1.54092e-09, global = 3.29139e-11, cumulative = 0.00675696
DILUPBiCGStab:  Solving for epsilon, Initial residual = 0.00042504, Final residual = 8.76836e-07, No Iterations 1
DILUPBiCGStab:  Solving for k, Initial residual = 0.00122922, Final residual = 3.81842e-08, No Iterations 1
ExecutionTime = 5.42 s  ClockTime = 6 s

Courant Number mean: 0.164941 max: 0.668338
Time = 964

diagonal:  Solving for rho, Initial residual = 0, Final residual = 0, No Iterations 0
DILUPBiCGStab:  Solving for Ux, Initial residual = 0.000556813, Final residual = 2.62962e-08, No Iterations 1
DILUPBiCGStab:  Solving for Uy, Initial residual = 0.000583773, Final residual = 2.01533e-08, No Iterations 1
DILUPBiCGStab:  Solving for Uz, Initial residual = 0.000556829, Final residual = 2.6274e-08, No Iterations 1
DILUPBiCGStab:  Solving for h, Initial residual = 0.00386233, Final residual = 1.78026e-07, No Iterations 1
DICPCG:  Solving for p_rgh, Initial residual = 0.000895272, Final residual = 3.90203e-06, No Iterations 21
diagonal:  Solving for rho, Initial residual = 0, Final residual = 0, No Iterations 0
time step continuity errors : sum local = 4.96328e-07, global = -3.08559e-10, cumulative = 0.00675696
DICPCG:  Solving for p_rgh, Initial residual = 7.40792e-05, Final residual = 5.83352e-09, No Iterations 11
diagonal:  Solving for rho, Initial residual = 0, Final residual = 0, No Iterations 0
time step continuity errors : sum local = 1.29076e-09, global = 9.71152e-12, cumulative = 0.00675696
DILUPBiCGStab:  Solving for epsilon, Initial residual = 0.000414829, Final residual = 8.5757e-07, No Iterations 1
DILUPBiCGStab:  Solving for k, Initial residual = 0.00119367, Final residual = 3.69153e-08, No Iterations 1
ExecutionTime = 5.44 s  ClockTime = 6 s

Courant Number mean: 0.16491 max: 0.667917
Time = 968

diagonal:  Solving for rho, Initial residual = 0, Final residual = 0, No Iterations 0
DILUPBiCGStab:  Solving for Ux, Initial residual = 0.000547418, Final residual = 2.61971e-08, No Iterations 1
DILUPBiCGStab:  Solving for Uy, Initial residual = 0.00057329, Final residual = 2.11713e-08, No Iterations 1
DILUPBiCGStab:  Solving for Uz, Initial residual = 0.000547212, Final residual = 2.62174e-08, No Iterations 1
DILUPBiCGStab:  Solving for h, Initial residual = 0.00385868, Final residual = 1.77675e-07, No Iterations 1
DICPCG:  Solving for p_rgh, Initial residual = 0.000883838, Final residual = 4.45502e-06, No Iterations 19
diagonal:  Solving for rho, Initial residual = 0, Final residual = 0, No Iterations 0
time step continuity errors : sum local = 5.66435e-07, global = -3.22504e-10, cumulative = 0.00675696
DICPCG:  Solving for p_rgh, Initial residual = 7.23456e-05, Final residual = 8.18112e-09, No Iterations 11
diagonal:  Solving for rho, Initial residual = 0, Final residual = 0, No Iterations 0
time step continuity errors : sum local = 1.4087e-09, global = -4.67727e-12, cumulative = 0.00675696
DILUPBiCGStab:  Solving for epsilon, Initial residual = 0.000404458, Final residual = 8.38579e-07, No Iterations 1
DILUPBiCGStab:  Solving for k, Initial residual = 0.00115875, Final residual = 3.5808e-08, No Iterations 1
ExecutionTime = 5.47 s  ClockTime = 6 s

Courant Number mean: 0.164884 max: 0.667483
Time = 972

diagonal:  Solving for rho, Initial residual = 0, Final residual = 0, No Iterations 0
DILUPBiCGStab:  Solving for Ux, Initial residual = 0.000538186, Final residual = 2.60917e-08, No Iterations 1
DILUPBiCGStab:  Solving for Uy, Initial residual = 0.00056286, Final residual = 2.20305e-08, No Iterations 1
DILUPBiCGStab:  Solving for Uz, Initial residual = 0.000538298, Final residual = 2.60806e-08, No Iterations 1
DILUPBiCGStab:  Solving for h, Initial residual = 0.00385566, Final residual = 1.77172e-07, No Iterations 1
DICPCG:  Solving for p_rgh, Initial residual = 0.000873013, Final residual = 7.589e-06, No Iterations 21
diagonal:  Solving for rho, Initial residual = 0, Final residual = 0, No Iterations 0
time step continuity errors : sum local = 9.64611e-07, global = -3.23636e-10, cumulative = 0.00675696
DICPCG:  Solving for p_rgh, Initial residual = 7.12506e-05, Final residual = 6.15468e-09, No Iterations 11
diagonal:  Solving for rho, Initial residual = 0, Final residual = 0, No Iterations 0
time step continuity errors : sum local = 1.22464e-09, global = -6.2573e-12, cumulative = 0.00675696
DILUPBiCGStab:  Solving for epsilon, Initial residual = 0.000394146, Final residual = 8.21252e-07, No Iterations 1
DILUPBiCGStab:  Solving for k, Initial residual = 0.00112482, Final residual = 3.48743e-08, No Iterations 1
ExecutionTime = 5.5 s  ClockTime = 6 s

Courant Number mean: 0.164862 max: 0.667035
Time = 976

diagonal:  Solving for rho, Initial residual = 0, Final residual = 0, No Iterations 0
DILUPBiCGStab:  Solving for Ux, Initial residual = 0.000530599, Final residual = 2.59149e-08, No Iterations 1
DILUPBiCGStab:  Solving for Uy, Initial residual = 0.000552547, Final residual = 2.2718e-08, No Iterations 1
DILUPBiCGStab:  Solving for Uz, Initial residual = 0.000530465, Final residual = 2.59127e-08, No Iterations 1
DILUPBiCGStab:  Solving for h, Initial residual = 0.00385253, Final residual = 1.7653e-07, No Iterations 1
DICPCG:  Solving for p_rgh, Initial residual = 0.00086359, Final residual = 6.64533e-06, No Iterations 21
diagonal:  Solving for rho, Initial residual = 0, Final residual = 0, No Iterations 0
time step continuity errors : sum local = 8.44127e-07, global = -2.9007e-10, cumulative = 0.00675696
DICPCG:  Solving for p_rgh, Initial residual = 6.97294e-05, Final residual = 6.0552e-09, No Iterations 11
diagonal:  Solving for rho, Initial residual = 0, Final residual = 0, No Iterations 0
time step continuity errors : sum local = 1.27174e-09, global = 2.67882e-11, cumulative = 0.00675696
DILUPBiCGStab:  Solving for epsilon, Initial residual = 0.000384317, Final residual = 8.05161e-07, No Iterations 1
DILUPBiCGStab:  Solving for k, Initial residual = 0.0010917, Final residual = 3.41286e-08, No Iterations 1
ExecutionTime = 5.51 s  ClockTime = 6 s

Courant Number mean: 0.164842 max: 0.666575
Time = 980

diagonal:  Solving for rho, Initial residual = 0, Final residual = 0, No Iterations 0
DILUPBiCGStab:  Solving for Ux, Initial residual = 0.000523354, Final residual = 2.574e-08, No Iterations 1
DILUPBiCGStab:  Solving for Uy, Initial residual = 0.000542854, Final residual = 2.32316e-08, No Iterations 1
DILUPBiCGStab:  Solving for Uz, Initial residual = 0.000523336, Final residual = 2.57598e-08, No Iterations 1
DILUPBiCGStab:  Solving for h, Initial residual = 0.0038489, Final residual = 1.75747e-07, No Iterations 1
DICPCG:  Solving for p_rgh, Initial residual = 0.000846604, Final residual = 7.07612e-06, No Iterations 21
diagonal:  Solving for rho, Initial residual = 0, Final residual = 0, No Iterations 0
time step continuity errors : sum local = 8.98368e-07, global = -3.03809e-10, cumulative = 0.00675696
DICPCG:  Solving for p_rgh, Initial residual = 6.80228e-05, Final residual = 5.43288e-09, No Iterations 11
diagonal:  Solving for rho, Initial residual = 0, Final residual = 0, No Iterations 0
time step continuity errors : sum local = 1.20391e-09, global = 1.25353e-11, cumulative = 0.00675696
DILUPBiCGStab:  Solving for epsilon, Initial residual = 0.00037509, Final residual = 7.9214e-07, No Iterations 1
DILUPBiCGStab:  Solving for k, Initial residual = 0.0010593, Final residual = 3.36035e-08, No Iterations 1
ExecutionTime = 5.53 s  ClockTime = 6 s

Courant Number mean: 0.164826 max: 0.666101
Time = 984

diagonal:  Solving for rho, Initial residual = 0, Final residual = 0, No Iterations 0
DILUPBiCGStab:  Solving for Ux, Initial residual = 0.000516907, Final residual = 2.5577e-08, No Iterations 1
DILUPBiCGStab:  Solving for Uy, Initial residual = 0.000532439, Final residual = 2.34697e-08, No Iterations 1
DILUPBiCGStab:  Solving for Uz, Initial residual = 0.000516876, Final residual = 2.55799e-08, No Iterations 1
DILUPBiCGStab:  Solving for h, Initial residual = 0.00384489, Final residual = 1.74839e-07, No Iterations 1
DICPCG:  Solving for p_rgh, Initial residual = 0.000831302, Final residual = 5.13043e-06, No Iterations 21
diagonal:  Solving for rho, Initial residual = 0, Final residual = 0, No Iterations 0
time step continuity errors : sum local = 6.51021e-07, global = -2.65737e-10, cumulative = 0.00675696
DICPCG:  Solving for p_rgh, Initial residual = 6.58587e-05, Final residual = 6.52388e-09, No Iterations 11
diagonal:  Solving for rho, Initial residual = 0, Final residual = 0, No Iterations 0
time step continuity errors : sum local = 1.31951e-09, global = 5.00259e-11, cumulative = 0.00675696
DILUPBiCGStab:  Solving for epsilon, Initial residual = 0.000366086, Final residual = 7.79151e-07, No Iterations 1
DILUPBiCGStab:  Solving for k, Initial residual = 0.00102853, Final residual = 3.32199e-08, No Iterations 1
ExecutionTime = 5.55 s  ClockTime = 6 s

Courant Number mean: 0.164813 max: 0.665615
Time = 988

diagonal:  Solving for rho, Initial residual = 0, Final residual = 0, No Iterations 0
DILUPBiCGStab:  Solving for Ux, Initial residual = 0.000511748, Final residual = 2.53745e-08, No Iterations 1
DILUPBiCGStab:  Solving for Uy, Initial residual = 0.00052375, Final residual = 2.36495e-08, No Iterations 1
DILUPBiCGStab:  Solving for Uz, Initial residual = 0.000511707, Final residual = 2.53807e-08, No Iterations 1
DILUPBiCGStab:  Solving for h, Initial residual = 0.00384032, Final residual = 1.73807e-07, No Iterations 1
DICPCG:  Solving for p_rgh, Initial residual = 0.000812336, Final residual = 5.44244e-06, No Iterations 21
diagonal:  Solving for rho, Initial residual = 0, Final residual = 0, No Iterations 0
time step continuity errors : sum local = 6.90367e-07, global = -2.71609e-10, cumulative = 0.00675696
DICPCG:  Solving for p_rgh, Initial residual = 6.39891e-05, Final residual = 6.39132e-09, No Iterations 11
diagonal:  Solving for rho, Initial residual = 0, Final residual = 0, No Iterations 0
time step continuity errors : sum local = 1.27789e-09, global = 4.35998e-11, cumulative = 0.00675696
DILUPBiCGStab:  Solving for epsilon, Initial residual = 0.000357248, Final residual = 7.66655e-07, No Iterations 1
DILUPBiCGStab:  Solving for k, Initial residual = 0.000998691, Final residual = 3.29908e-08, No Iterations 1
ExecutionTime = 5.57 s  ClockTime = 6 s

Courant Number mean: 0.164803 max: 0.665117
Time = 992

diagonal:  Solving for rho, Initial residual = 0, Final residual = 0, No Iterations 0
DILUPBiCGStab:  Solving for Ux, Initial residual = 0.000505869, Final residual = 2.51873e-08, No Iterations 1
DILUPBiCGStab:  Solving for Uy, Initial residual = 0.000515557, Final residual = 2.35646e-08, No Iterations 1
DILUPBiCGStab:  Solving for Uz, Initial residual = 0.00050595, Final residual = 2.5186e-08, No Iterations 1
DILUPBiCGStab:  Solving for h, Initial residual = 0.0038353, Final residual = 1.72694e-07, No Iterations 1
DICPCG:  Solving for p_rgh, Initial residual = 0.000797452, Final residual = 6.00286e-06, No Iterations 21
diagonal:  Solving for rho, Initial residual = 0, Final residual = 0, No Iterations 0
time step continuity errors : sum local = 7.61092e-07, global = -3.13412e-10, cumulative = 0.00675696
DICPCG:  Solving for p_rgh, Initial residual = 6.23651e-05, Final residual = 7.82089e-09, No Iterations 11
diagonal:  Solving for rho, Initial residual = 0, Final residual = 0, No Iterations 0
time step continuity errors : sum local = 1.39288e-09, global = 1.18628e-12, cumulative = 0.00675696
DILUPBiCGStab:  Solving for epsilon, Initial residual = 0.000349094, Final residual = 7.5454e-07, No Iterations 1
DILUPBiCGStab:  Solving for k, Initial residual = 0.000969866, Final residual = 3.29036e-08, No Iterations 1
ExecutionTime = 5.59 s  ClockTime = 6 s

Courant Number mean: 0.164797 max: 0.664607
Time = 996

diagonal:  Solving for rho, Initial residual = 0, Final residual = 0, No Iterations 0
DILUPBiCGStab:  Solving for Ux, Initial residual = 0.000499652, Final residual = 2.49926e-08, No Iterations 1
DILUPBiCGStab:  Solving for Uy, Initial residual = 0.000508707, Final residual = 2.34068e-08, No Iterations 1
DILUPBiCGStab:  Solving for Uz, Initial residual = 0.000499902, Final residual = 2.5011e-08, No Iterations 1
DILUPBiCGStab:  Solving for h, Initial residual = 0.00382983, Final residual = 1.71531e-07, No Iterations 1
DICPCG:  Solving for p_rgh, Initial residual = 0.000769925, Final residual = 6.12435e-06, No Iterations 21
diagonal:  Solving for rho, Initial residual = 0, Final residual = 0, No Iterations 0
time step continuity errors : sum local = 7.76298e-07, global = -3.43055e-10, cumulative = 0.00675696
DICPCG:  Solving for p_rgh, Initial residual = 6.04628e-05, Final residual = 7.40032e-09, No Iterations 11
diagonal:  Solving for rho, Initial residual = 0, Final residual = 0, No Iterations 0
time step continuity errors : sum local = 1.31442e-09, global = -2.90573e-11, cumulative = 0.00675696
DILUPBiCGStab:  Solving for epsilon, Initial residual = 0.000341368, Final residual = 7.43114e-07, No Iterations 1
DILUPBiCGStab:  Solving for k, Initial residual = 0.000942252, Final residual = 3.29584e-08, No Iterations 1
ExecutionTime = 5.62 s  ClockTime = 6 s

Courant Number mean: 0.164792 max: 0.664087
Time = 1000

diagonal:  Solving for rho, Initial residual = 0, Final residual = 0, No Iterations 0
DILUPBiCGStab:  Solving for Ux, Initial residual = 0.000493577, Final residual = 2.48265e-08, No Iterations 1
DILUPBiCGStab:  Solving for Uy, Initial residual = 0.00050199, Final residual = 2.30419e-08, No Iterations 1
DILUPBiCGStab:  Solving for Uz, Initial residual = 0.000493559, Final residual = 2.48472e-08, No Iterations 1
DILUPBiCGStab:  Solving for h, Initial residual = 0.00382406, Final residual = 1.70271e-07, No Iterations 1
DICPCG:  Solving for p_rgh, Initial residual = 0.000753117, Final residual = 6.15514e-06, No Iterations 21
diagonal:  Solving for rho, Initial residual = 0, Final residual = 0, No Iterations 0
time step continuity errors : sum local = 7.79838e-07, global = -3.06145e-10, cumulative = 0.00675696
DICPCG:  Solving for p_rgh, Initial residual = 5.91378e-05, Final residual = 8.10004e-09, No Iterations 11
diagonal:  Solving for rho, Initial residual = 0, Final residual = 0, No Iterations 0
time step continuity errors : sum local = 1.42416e-09, global = 7.14038e-12, cumulative = 0.00675696
DILUPBiCGStab:  Solving for epsilon, Initial residual = 0.000334572, Final residual = 7.32151e-07, No Iterations 1
DILUPBiCGStab:  Solving for k, Initial residual = 0.000916438, Final residual = 3.31246e-08, No Iterations 1
ExecutionTime = 5.64 s  ClockTime = 6 s

End

