/*---------------------------------------------------------------------------*\
  =========                 |
  \\      /  F ield         | OpenFOAM: The Open Source CFD Toolbox
   \\    /   O peration     | Website:  https://openfoam.org
    \\  /    A nd           | Version:  7
     \\/     M anipulation  |
\*---------------------------------------------------------------------------*/
Build  : 7-49b2b3b8b082
Exec   : rhoPimpleFoam
Date   : Apr 06 2023
Time   : 13:51:40
Host   : "c402-042.stampede2.tacc.utexas.edu"
PID    : 29171
I/O    : uncollated
Case   : /home1/07645/eesha_n/SeniorDesign/CooliestModel/src/CFD/circuit_validation
nProcs : 1
sigFpe : Enabling floating point exception trapping (FOAM_SIGFPE).
fileModificationChecking : Monitoring run-time modified files using timeStampMaster (fileModificationSkew 10)
allowSystemOperations : Allowing user-supplied system call operations

// * * * * * * * * * * * * * * * * * * * * * * * * * * * * * * * * * * * * * //
Create time

Create mesh for time = 0


PIMPLE: No convergence criteria found


PIMPLE: No corrector convergence criteria found
        Calculations will do 3 corrections


PIMPLE: Operating solver in transient mode with 3 outer correctors


Reading thermophysical properties

Selecting thermodynamics package 
{
    type            hePsiThermo;
    mixture         pureMixture;
    transport       const;
    thermo          eConst;
    equationOfState perfectGas;
    specie          specie;
    energy          sensibleInternalEnergy;
}

--> FOAM Warning : 
    From function Foam::Field<Type>::Field(const Foam::word &, const Foam::dictionary &, int) [with Type = double]
    in file /home1/apps/intel18/impi18_0/OpenFOAM/OpenFOAM-7/src/OpenFOAM/lnInclude/Field.C at line 235
    Reading "/home1/07645/eesha_n/SeniorDesign/CooliestModel/src/CFD/circuit_validation/0/T.boundaryField.lowerWall" from line 44 to line 19
    expected keyword 'uniform' or 'nonuniform', assuming deprecated Field format from Foam version 2.0.
Reading field U

Reading/calculating face flux field phi

pressureControl
    pMax 200000
    pMin 50000

Creating turbulence model

Selecting turbulence model type LES
Selecting LES turbulence model kEqn
Selecting LES delta type cubeRootVol
--> FOAM Warning : 
    From function void Foam::LESModels::cubeRootVolDelta::calcDelta()
    in file LES/LESdeltas/cubeRootVolDelta/cubeRootVolDelta.C at line 55
    Case is 2D, LES is not strictly applicable

bounding k, min: 0 max: 2e-05 average: 0
LES
{
    LESModel        kEqn;
    turbulence      on;
    printCoeffs     on;
    delta           cubeRootVol;
    cubeRootVolCoeffs
    {
        deltaCoeff      1;
    }
    PrandtlCoeffs
    {
        delta           cubeRootVol;
        cubeRootVolCoeffs
        {
            deltaCoeff      1;
        }
        smoothCoeffs
        {
            delta           cubeRootVol;
            cubeRootVolCoeffs
            {
                deltaCoeff      1;
            }
            maxDeltaRatio   1.1;
        }
        Cdelta          0.158;
    }
    vanDriestCoeffs
    {
        delta           cubeRootVol;
        cubeRootVolCoeffs
        {
            deltaCoeff      1;
        }
        smoothCoeffs
        {
            delta           cubeRootVol;
            cubeRootVolCoeffs
            {
                deltaCoeff      1;
            }
            maxDeltaRatio   1.1;
        }
        Aplus           26;
        Cdelta          0.158;
    }
    smoothCoeffs
    {
        delta           cubeRootVol;
        cubeRootVolCoeffs
        {
            deltaCoeff      1;
        }
        maxDeltaRatio   1.1;
    }
    Ce              1.048;
    Ck              0.094;
}

Creating field dpdt

Creating field kinetic energy K

No MRF models present

No finite volume options present
Courant Number mean: 0.0666667 max: 8

Starting time loop

Courant Number mean: 0.0666667 max: 8
Time = 0.005

PIMPLE: Iteration 1
diagonal:  Solving for rho, Initial residual = 0, Final residual = 0, No Iterations 0
smoothSolver:  Solving for Ux, Initial residual = 1, Final residual = 6.01899e-07, No Iterations 1
smoothSolver:  Solving for Uy, Initial residual = 1, Final residual = 3.25661e-07, No Iterations 1
smoothSolver:  Solving for e, Initial residual = 1, Final residual = 2.52791e-06, No Iterations 1
DICPCG:  Solving for p, Initial residual = 1, Final residual = 8.73488e-07, No Iterations 77
diagonal:  Solving for rho, Initial residual = 0, Final residual = 0, No Iterations 0
time step continuity errors : sum local = 7.92656e-08, global = 2.75923e-11, cumulative = 2.75923e-11
PIMPLE: Iteration 2
smoothSolver:  Solving for Ux, Initial residual = 0.492539, Final residual = 0.00399669, No Iterations 6
smoothSolver:  Solving for Uy, Initial residual = 0.148702, Final residual = 0.000658112, No Iterations 6
smoothSolver:  Solving for e, Initial residual = 0.627025, Final residual = 0.00478967, No Iterations 3
DICPCG:  Solving for p, Initial residual = 0.393389, Final residual = 6.69378e-07, No Iterations 72
diagonal:  Solving for rho, Initial residual = 0, Final residual = 0, No Iterations 0
time step continuity errors : sum local = 3.71925e-08, global = -1.40466e-12, cumulative = 2.61877e-11
PIMPLE: Iteration 3
smoothSolver:  Solving for Ux, Initial residual = 0.511816, Final residual = 5.6852e-07, No Iterations 17
smoothSolver:  Solving for Uy, Initial residual = 0.185044, Final residual = 7.45046e-07, No Iterations 15
smoothSolver:  Solving for e, Initial residual = 0.666362, Final residual = 5.98131e-07, No Iterations 15
DICPCG:  Solving for p, Initial residual = 0.292045, Final residual = 6.93232e-07, No Iterations 73
diagonal:  Solving for rho, Initial residual = 0, Final residual = 0, No Iterations 0
time step continuity errors : sum local = 4.29215e-08, global = -8.92788e-12, cumulative = 1.72598e-11
smoothSolver:  Solving for k, Initial residual = 0.969412, Final residual = 9.29125e-07, No Iterations 54
bounding k, min: -1.25971e-11 max: 0.00242239 average: 1.00869e-05
ExecutionTime = 0.36 s  ClockTime = 1 s

Courant Number mean: 14.4439 max: 16.9202
Time = 0.01

PIMPLE: Iteration 1
diagonal:  Solving for rho, Initial residual = 0, Final residual = 0, No Iterations 0
smoothSolver:  Solving for Ux, Initial residual = 0.799096, Final residual = 0.00647025, No Iterations 6
smoothSolver:  Solving for Uy, Initial residual = 0.158882, Final residual = 0.000820246, No Iterations 6
smoothSolver:  Solving for e, Initial residual = 0.74336, Final residual = 0.00671244, No Iterations 5
DICPCG:  Solving for p, Initial residual = 0.555355, Final residual = 9.55033e-07, No Iterations 73
diagonal:  Solving for rho, Initial residual = 0, Final residual = 0, No Iterations 0
time step continuity errors : sum local = 9.36263e-08, global = 1.961e-11, cumulative = 3.68698e-11
PIMPLE: Iteration 2
smoothSolver:  Solving for Ux, Initial residual = 0.769281, Final residual = 0.00571732, No Iterations 6
smoothSolver:  Solving for Uy, Initial residual = 0.708505, Final residual = 0.00570613, No Iterations 6
smoothSolver:  Solving for e, Initial residual = 0.408639, Final residual = 0.0026343, No Iterations 5
DICPCG:  Solving for p, Initial residual = 0.378396, Final residual = 6.9394e-07, No Iterations 72
diagonal:  Solving for rho, Initial residual = 0, Final residual = 0, No Iterations 0
time step continuity errors : sum local = 6.00686e-08, global = -1.08569e-11, cumulative = 2.60129e-11
PIMPLE: Iteration 3
smoothSolver:  Solving for Ux, Initial residual = 0.374646, Final residual = 7.53435e-07, No Iterations 16
smoothSolver:  Solving for Uy, Initial residual = 0.503905, Final residual = 5.25728e-07, No Iterations 17
smoothSolver:  Solving for e, Initial residual = 0.301473, Final residual = 6.41088e-07, No Iterations 16
DICPCG:  Solving for p, Initial residual = 0.41743, Final residual = 6.61696e-07, No Iterations 72
diagonal:  Solving for rho, Initial residual = 0, Final residual = 0, No Iterations 0
time step continuity errors : sum local = 2.96076e-08, global = -1.38424e-12, cumulative = 2.46286e-11
smoothSolver:  Solving for k, Initial residual = 0.941564, Final residual = 7.63865e-07, No Iterations 19
bounding k, min: -2.64202e-12 max: 0.0682956 average: 0.000606718
ExecutionTime = 0.45 s  ClockTime = 1 s

Courant Number mean: 18.1686 max: 19.711
Time = 0.015

PIMPLE: Iteration 1
diagonal:  Solving for rho, Initial residual = 0, Final residual = 0, No Iterations 0
smoothSolver:  Solving for Ux, Initial residual = 0.179877, Final residual = 0.00140495, No Iterations 6
smoothSolver:  Solving for Uy, Initial residual = 0.293895, Final residual = 0.00202169, No Iterations 6
smoothSolver:  Solving for e, Initial residual = 0.351212, Final residual = 0.00289117, No Iterations 6
DICPCG:  Solving for p, Initial residual = 0.76916, Final residual = 7.37071e-07, No Iterations 72
diagonal:  Solving for rho, Initial residual = 0, Final residual = 0, No Iterations 0
time step continuity errors : sum local = 3.70383e-08, global = 2.56813e-12, cumulative = 2.71967e-11
PIMPLE: Iteration 2
smoothSolver:  Solving for Ux, Initial residual = 0.602454, Final residual = 0.00461668, No Iterations 6
smoothSolver:  Solving for Uy, Initial residual = 0.225568, Final residual = 0.00123132, No Iterations 6
smoothSolver:  Solving for e, Initial residual = 0.323933, Final residual = 0.0017566, No Iterations 6
DICPCG:  Solving for p, Initial residual = 0.314219, Final residual = 9.62151e-07, No Iterations 72
diagonal:  Solving for rho, Initial residual = 0, Final residual = 0, No Iterations 0
time step continuity errors : sum local = 5.16285e-08, global = -3.92624e-12, cumulative = 2.32705e-11
PIMPLE: Iteration 3
smoothSolver:  Solving for Ux, Initial residual = 0.67499, Final residual = 5.38615e-07, No Iterations 17
smoothSolver:  Solving for Uy, Initial residual = 0.217979, Final residual = 9.08401e-07, No Iterations 15
smoothSolver:  Solving for e, Initial residual = 0.195179, Final residual = 5.29485e-07, No Iterations 15
DICPCG:  Solving for p, Initial residual = 0.258805, Final residual = 7.33948e-07, No Iterations 71
diagonal:  Solving for rho, Initial residual = 0, Final residual = 0, No Iterations 0
time step continuity errors : sum local = 3.29208e-08, global = 6.68e-13, cumulative = 2.39385e-11
smoothSolver:  Solving for k, Initial residual = 0.861767, Final residual = 9.96279e-07, No Iterations 28
bounding k, min: -0.00171604 max: 0.801053 average: 0.0210476
ExecutionTime = 0.53 s  ClockTime = 1 s

Courant Number mean: 16.1752 max: 16.4453
Time = 0.02

PIMPLE: Iteration 1
diagonal:  Solving for rho, Initial residual = 0, Final residual = 0, No Iterations 0
smoothSolver:  Solving for Ux, Initial residual = 0.837845, Final residual = 0.00645887, No Iterations 6
smoothSolver:  Solving for Uy, Initial residual = 0.386826, Final residual = 0.00367699, No Iterations 5
smoothSolver:  Solving for e, Initial residual = 0.250774, Final residual = 0.002158, No Iterations 5
DICPCG:  Solving for p, Initial residual = 0.13915, Final residual = 9.1071e-07, No Iterations 70
diagonal:  Solving for rho, Initial residual = 0, Final residual = 0, No Iterations 0
time step continuity errors : sum local = 2.84593e-08, global = 9.37542e-12, cumulative = 3.33139e-11
PIMPLE: Iteration 2
smoothSolver:  Solving for Ux, Initial residual = 0.61215, Final residual = 0.0045677, No Iterations 6
smoothSolver:  Solving for Uy, Initial residual = 0.30774, Final residual = 0.0013656, No Iterations 6
smoothSolver:  Solving for e, Initial residual = 0.2121, Final residual = 0.00152651, No Iterations 5
DICPCG:  Solving for p, Initial residual = 0.295372, Final residual = 6.43952e-07, No Iterations 71
diagonal:  Solving for rho, Initial residual = 0, Final residual = 0, No Iterations 0
time step continuity errors : sum local = 1.78167e-08, global = 1.99362e-14, cumulative = 3.33339e-11
PIMPLE: Iteration 3
smoothSolver:  Solving for Ux, Initial residual = 0.255328, Final residual = 5.15885e-07, No Iterations 16
smoothSolver:  Solving for Uy, Initial residual = 0.17264, Final residual = 4.95557e-07, No Iterations 15
smoothSolver:  Solving for e, Initial residual = 0.238183, Final residual = 9.99965e-07, No Iterations 15
DICPCG:  Solving for p, Initial residual = 0.418165, Final residual = 5.39059e-07, No Iterations 73
diagonal:  Solving for rho, Initial residual = 0, Final residual = 0, No Iterations 0
time step continuity errors : sum local = 7.02801e-09, global = -2.64412e-13, cumulative = 3.30695e-11
smoothSolver:  Solving for k, Initial residual = 0.547547, Final residual = 8.62318e-07, No Iterations 16
bounding k, min: -4.98484e-07 max: 3.12229 average: 0.166183
ExecutionTime = 0.61 s  ClockTime = 1 s

Courant Number mean: 15.1602 max: 16.1754
Time = 0.025

PIMPLE: Iteration 1
diagonal:  Solving for rho, Initial residual = 0, Final residual = 0, No Iterations 0
smoothSolver:  Solving for Ux, Initial residual = 0.166129, Final residual = 0.00131113, No Iterations 6
smoothSolver:  Solving for Uy, Initial residual = 0.232057, Final residual = 0.00193612, No Iterations 5
smoothSolver:  Solving for e, Initial residual = 0.308313, Final residual = 0.00201693, No Iterations 6
DICPCG:  Solving for p, Initial residual = 0.7377, Final residual = 5.12446e-07, No Iterations 73
diagonal:  Solving for rho, Initial residual = 0, Final residual = 0, No Iterations 0
time step continuity errors : sum local = 8.71401e-09, global = 1.3991e-12, cumulative = 3.44685e-11
PIMPLE: Iteration 2
smoothSolver:  Solving for Ux, Initial residual = 0.467015, Final residual = 0.0035345, No Iterations 6
smoothSolver:  Solving for Uy, Initial residual = 0.221417, Final residual = 0.0018978, No Iterations 5
smoothSolver:  Solving for e, Initial residual = 0.210763, Final residual = 0.00204328, No Iterations 5
DICPCG:  Solving for p, Initial residual = 0.241611, Final residual = 8.39874e-07, No Iterations 72
diagonal:  Solving for rho, Initial residual = 0, Final residual = 0, No Iterations 0
time step continuity errors : sum local = 2.35087e-08, global = 1.19309e-13, cumulative = 3.45879e-11
PIMPLE: Iteration 3
smoothSolver:  Solving for Ux, Initial residual = 0.292368, Final residual = 5.4879e-07, No Iterations 16
smoothSolver:  Solving for Uy, Initial residual = 0.125091, Final residual = 6.68741e-07, No Iterations 14
smoothSolver:  Solving for e, Initial residual = 0.101929, Final residual = 4.65278e-07, No Iterations 14
DICPCG:  Solving for p, Initial residual = 0.201863, Final residual = 5.70399e-07, No Iterations 71
diagonal:  Solving for rho, Initial residual = 0, Final residual = 0, No Iterations 0
time step continuity errors : sum local = 1.23687e-08, global = 2.86365e-13, cumulative = 3.48742e-11
smoothSolver:  Solving for k, Initial residual = 0.311813, Final residual = 4.63481e-07, No Iterations 14
bounding k, min: -0.00493364 max: 6.33401 average: 0.541971
ExecutionTime = 0.69 s  ClockTime = 1 s

Courant Number mean: 15.986 max: 16.5652
Time = 0.03

PIMPLE: Iteration 1
diagonal:  Solving for rho, Initial residual = 0, Final residual = 0, No Iterations 0
smoothSolver:  Solving for Ux, Initial residual = 0.291726, Final residual = 0.00218391, No Iterations 6
smoothSolver:  Solving for Uy, Initial residual = 0.173098, Final residual = 0.00135034, No Iterations 5
smoothSolver:  Solving for e, Initial residual = 0.109524, Final residual = 0.0010294, No Iterations 5
DICPCG:  Solving for p, Initial residual = 0.289038, Final residual = 7.39445e-07, No Iterations 72
diagonal:  Solving for rho, Initial residual = 0, Final residual = 0, No Iterations 0
time step continuity errors : sum local = 1.20985e-08, global = 6.68785e-12, cumulative = 4.15621e-11
PIMPLE: Iteration 2
smoothSolver:  Solving for Ux, Initial residual = 0.188875, Final residual = 0.0014204, No Iterations 6
smoothSolver:  Solving for Uy, Initial residual = 0.18128, Final residual = 0.00166794, No Iterations 5
smoothSolver:  Solving for e, Initial residual = 0.067594, Final residual = 0.000637779, No Iterations 5
DICPCG:  Solving for p, Initial residual = 0.210636, Final residual = 7.1785e-07, No Iterations 71
diagonal:  Solving for rho, Initial residual = 0, Final residual = 0, No Iterations 0
time step continuity errors : sum local = 1.11529e-08, global = 4.7333e-14, cumulative = 4.16094e-11
PIMPLE: Iteration 3
smoothSolver:  Solving for Ux, Initial residual = 0.10437, Final residual = 5.23095e-07, No Iterations 15
smoothSolver:  Solving for Uy, Initial residual = 0.113747, Final residual = 5.46538e-07, No Iterations 14
smoothSolver:  Solving for e, Initial residual = 0.0598415, Final residual = 5.03393e-07, No Iterations 14
DICPCG:  Solving for p, Initial residual = 0.151075, Final residual = 6.05909e-07, No Iterations 71
diagonal:  Solving for rho, Initial residual = 0, Final residual = 0, No Iterations 0
time step continuity errors : sum local = 8.18989e-09, global = 9.50263e-13, cumulative = 4.25597e-11
smoothSolver:  Solving for k, Initial residual = 0.169884, Final residual = 7.91481e-07, No Iterations 12
bounding k, min: -0.000333552 max: 7.75985 average: 1.01781
ExecutionTime = 0.78 s  ClockTime = 1 s

Courant Number mean: 16.2973 max: 17.1548
Time = 0.035

PIMPLE: Iteration 1
diagonal:  Solving for rho, Initial residual = 0, Final residual = 0, No Iterations 0
smoothSolver:  Solving for Ux, Initial residual = 0.115285, Final residual = 0.000935811, No Iterations 6
smoothSolver:  Solving for Uy, Initial residual = 0.136062, Final residual = 0.00120671, No Iterations 5
smoothSolver:  Solving for e, Initial residual = 0.0766962, Final residual = 0.000475882, No Iterations 6
DICPCG:  Solving for p, Initial residual = 0.429806, Final residual = 9.20173e-07, No Iterations 72
diagonal:  Solving for rho, Initial residual = 0, Final residual = 0, No Iterations 0
time step continuity errors : sum local = 1.20116e-08, global = 7.18987e-12, cumulative = 4.97495e-11
PIMPLE: Iteration 2
smoothSolver:  Solving for Ux, Initial residual = 0.0731234, Final residual = 0.000603524, No Iterations 6
smoothSolver:  Solving for Uy, Initial residual = 0.122737, Final residual = 0.00114017, No Iterations 5
smoothSolver:  Solving for e, Initial residual = 0.0685542, Final residual = 0.000630871, No Iterations 5
DICPCG:  Solving for p, Initial residual = 0.331795, Final residual = 8.43496e-07, No Iterations 72
diagonal:  Solving for rho, Initial residual = 0, Final residual = 0, No Iterations 0
time step continuity errors : sum local = 8.80754e-09, global = 5.19992e-13, cumulative = 5.02695e-11
PIMPLE: Iteration 3
smoothSolver:  Solving for Ux, Initial residual = 0.041958, Final residual = 6.18361e-07, No Iterations 14
smoothSolver:  Solving for Uy, Initial residual = 0.0876339, Final residual = 4.58412e-07, No Iterations 14
smoothSolver:  Solving for e, Initial residual = 0.0433846, Final residual = 4.57193e-07, No Iterations 13
DICPCG:  Solving for p, Initial residual = 0.249042, Final residual = 7.86855e-07, No Iterations 72
diagonal:  Solving for rho, Initial residual = 0, Final residual = 0, No Iterations 0
time step continuity errors : sum local = 7.39511e-09, global = -8.55217e-14, cumulative = 5.0184e-11
smoothSolver:  Solving for k, Initial residual = 0.0756223, Final residual = 8.81708e-07, No Iterations 11
bounding k, min: -0.0116017 max: 8.20171 average: 1.28765
ExecutionTime = 0.86 s  ClockTime = 1 s

Courant Number mean: 16.0286 max: 17.1694
Time = 0.04

PIMPLE: Iteration 1
diagonal:  Solving for rho, Initial residual = 0, Final residual = 0, No Iterations 0
smoothSolver:  Solving for Ux, Initial residual = 0.0546216, Final residual = 0.000498384, No Iterations 6
smoothSolver:  Solving for Uy, Initial residual = 0.0996369, Final residual = 0.000933273, No Iterations 5
smoothSolver:  Solving for e, Initial residual = 0.0478775, Final residual = 0.000463499, No Iterations 5
DICPCG:  Solving for p, Initial residual = 0.294004, Final residual = 9.92311e-07, No Iterations 72
diagonal:  Solving for rho, Initial residual = 0, Final residual = 0, No Iterations 0
time step continuity errors : sum local = 9.3249e-09, global = -1.00466e-11, cumulative = 4.01374e-11
PIMPLE: Iteration 2
smoothSolver:  Solving for Ux, Initial residual = 0.0469307, Final residual = 0.000407146, No Iterations 6
smoothSolver:  Solving for Uy, Initial residual = 0.079293, Final residual = 0.000358768, No Iterations 6
smoothSolver:  Solving for e, Initial residual = 0.0361902, Final residual = 0.000181006, No Iterations 6
DICPCG:  Solving for p, Initial residual = 0.183275, Final residual = 6.20917e-07, No Iterations 72
diagonal:  Solving for rho, Initial residual = 0, Final residual = 0, No Iterations 0
time step continuity errors : sum local = 6.04469e-09, global = 6.00239e-13, cumulative = 4.07377e-11
PIMPLE: Iteration 3
smoothSolver:  Solving for Ux, Initial residual = 0.0365142, Final residual = 4.77952e-07, No Iterations 14
smoothSolver:  Solving for Uy, Initial residual = 0.0556563, Final residual = 7.74886e-07, No Iterations 13
smoothSolver:  Solving for e, Initial residual = 0.0290388, Final residual = 4.87754e-07, No Iterations 13
DICPCG:  Solving for p, Initial residual = 0.106876, Final residual = 7.12604e-07, No Iterations 71
diagonal:  Solving for rho, Initial residual = 0, Final residual = 0, No Iterations 0
time step continuity errors : sum local = 7.22895e-09, global = 5.94691e-13, cumulative = 4.13324e-11
smoothSolver:  Solving for k, Initial residual = 0.0271417, Final residual = 4.38251e-07, No Iterations 11
bounding k, min: -0.00190727 max: 8.28146 average: 1.34002
ExecutionTime = 0.94 s  ClockTime = 2 s

Courant Number mean: 15.9827 max: 17.5494
Time = 0.045

PIMPLE: Iteration 1
diagonal:  Solving for rho, Initial residual = 0, Final residual = 0, No Iterations 0
smoothSolver:  Solving for Ux, Initial residual = 0.0466628, Final residual = 0.000396041, No Iterations 6
smoothSolver:  Solving for Uy, Initial residual = 0.0656151, Final residual = 0.000297183, No Iterations 6
smoothSolver:  Solving for e, Initial residual = 0.0424034, Final residual = 0.000233489, No Iterations 6
DICPCG:  Solving for p, Initial residual = 0.162345, Final residual = 8.19222e-07, No Iterations 71
diagonal:  Solving for rho, Initial residual = 0, Final residual = 0, No Iterations 0
time step continuity errors : sum local = 8.59842e-09, global = 4.30182e-12, cumulative = 4.56342e-11
PIMPLE: Iteration 2
smoothSolver:  Solving for Ux, Initial residual = 0.0450081, Final residual = 0.00034651, No Iterations 6
smoothSolver:  Solving for Uy, Initial residual = 0.0543083, Final residual = 0.000267588, No Iterations 6
smoothSolver:  Solving for e, Initial residual = 0.032291, Final residual = 0.000146469, No Iterations 6
DICPCG:  Solving for p, Initial residual = 0.11136, Final residual = 6.88572e-07, No Iterations 72
diagonal:  Solving for rho, Initial residual = 0, Final residual = 0, No Iterations 0
time step continuity errors : sum local = 8.12277e-09, global = -9.5668e-13, cumulative = 4.46775e-11
PIMPLE: Iteration 3
smoothSolver:  Solving for Ux, Initial residual = 0.0304884, Final residual = 8.13709e-07, No Iterations 13
smoothSolver:  Solving for Uy, Initial residual = 0.0392165, Final residual = 6.00106e-07, No Iterations 13
smoothSolver:  Solving for e, Initial residual = 0.0244563, Final residual = 8.03613e-07, No Iterations 12
DICPCG:  Solving for p, Initial residual = 0.0896917, Final residual = 6.34593e-07, No Iterations 70
diagonal:  Solving for rho, Initial residual = 0, Final residual = 0, No Iterations 0
time step continuity errors : sum local = 6.93886e-09, global = 1.72208e-12, cumulative = 4.63996e-11
smoothSolver:  Solving for k, Initial residual = 0.0295828, Final residual = 8.02061e-07, No Iterations 10
bounding k, min: -0.00673611 max: 8.24557 average: 1.30989
ExecutionTime = 1.02 s  ClockTime = 2 s

Courant Number mean: 16.105 max: 18.0819
Time = 0.05

PIMPLE: Iteration 1
diagonal:  Solving for rho, Initial residual = 0, Final residual = 0, No Iterations 0
smoothSolver:  Solving for Ux, Initial residual = 0.0351623, Final residual = 0.000287754, No Iterations 6
smoothSolver:  Solving for Uy, Initial residual = 0.0467783, Final residual = 0.000227198, No Iterations 6
smoothSolver:  Solving for e, Initial residual = 0.0281217, Final residual = 0.000155834, No Iterations 6
DICPCG:  Solving for p, Initial residual = 0.10455, Final residual = 7.45251e-07, No Iterations 70
diagonal:  Solving for rho, Initial residual = 0, Final residual = 0, No Iterations 0
time step continuity errors : sum local = 7.69837e-09, global = 8.85262e-12, cumulative = 5.52522e-11
PIMPLE: Iteration 2
smoothSolver:  Solving for Ux, Initial residual = 0.0250476, Final residual = 0.000202946, No Iterations 6
smoothSolver:  Solving for Uy, Initial residual = 0.0397735, Final residual = 0.00020922, No Iterations 6
smoothSolver:  Solving for e, Initial residual = 0.0247683, Final residual = 0.000140205, No Iterations 6
DICPCG:  Solving for p, Initial residual = 0.0933664, Final residual = 8.84699e-07, No Iterations 71
diagonal:  Solving for rho, Initial residual = 0, Final residual = 0, No Iterations 0
time step continuity errors : sum local = 8.22726e-09, global = 1.75421e-12, cumulative = 5.70064e-11
PIMPLE: Iteration 3
smoothSolver:  Solving for Ux, Initial residual = 0.0188491, Final residual = 4.88561e-07, No Iterations 13
smoothSolver:  Solving for Uy, Initial residual = 0.030933, Final residual = 4.97308e-07, No Iterations 13
smoothSolver:  Solving for e, Initial residual = 0.0190107, Final residual = 7.33889e-07, No Iterations 12
DICPCG:  Solving for p, Initial residual = 0.056247, Final residual = 7.4958e-07, No Iterations 70
diagonal:  Solving for rho, Initial residual = 0, Final residual = 0, No Iterations 0
time step continuity errors : sum local = 6.94607e-09, global = 2.08146e-12, cumulative = 5.90879e-11
smoothSolver:  Solving for k, Initial residual = 0.0324407, Final residual = 8.9491e-07, No Iterations 10
bounding k, min: 0 max: 8.23814 average: 1.26072
ExecutionTime = 1.09 s  ClockTime = 2 s

Courant Number mean: 16.1243 max: 18.3627
Time = 0.055

PIMPLE: Iteration 1
diagonal:  Solving for rho, Initial residual = 0, Final residual = 0, No Iterations 0
smoothSolver:  Solving for Ux, Initial residual = 0.0233015, Final residual = 0.000178833, No Iterations 6
smoothSolver:  Solving for Uy, Initial residual = 0.0365805, Final residual = 0.000182792, No Iterations 6
smoothSolver:  Solving for e, Initial residual = 0.0267591, Final residual = 0.000168454, No Iterations 6
DICPCG:  Solving for p, Initial residual = 0.114881, Final residual = 6.52285e-07, No Iterations 71
diagonal:  Solving for rho, Initial residual = 0, Final residual = 0, No Iterations 0
time step continuity errors : sum local = 6.07385e-09, global = 2.06626e-12, cumulative = 6.11541e-11
PIMPLE: Iteration 2
smoothSolver:  Solving for Ux, Initial residual = 0.0167817, Final residual = 0.000123591, No Iterations 6
smoothSolver:  Solving for Uy, Initial residual = 0.0314003, Final residual = 0.000174665, No Iterations 6
smoothSolver:  Solving for e, Initial residual = 0.0224828, Final residual = 0.000128345, No Iterations 6
DICPCG:  Solving for p, Initial residual = 0.0987855, Final residual = 8.79146e-07, No Iterations 71
diagonal:  Solving for rho, Initial residual = 0, Final residual = 0, No Iterations 0
time step continuity errors : sum local = 7.14502e-09, global = 3.74638e-12, cumulative = 6.49005e-11
PIMPLE: Iteration 3
smoothSolver:  Solving for Ux, Initial residual = 0.0133687, Final residual = 6.8856e-07, No Iterations 12
smoothSolver:  Solving for Uy, Initial residual = 0.0247164, Final residual = 9.07516e-07, No Iterations 12
smoothSolver:  Solving for e, Initial residual = 0.0168159, Final residual = 6.12667e-07, No Iterations 12
DICPCG:  Solving for p, Initial residual = 0.0543632, Final residual = 9.40682e-07, No Iterations 71
diagonal:  Solving for rho, Initial residual = 0, Final residual = 0, No Iterations 0
time step continuity errors : sum local = 8.01214e-09, global = -7.15186e-12, cumulative = 5.77487e-11
smoothSolver:  Solving for k, Initial residual = 0.0308529, Final residual = 9.44287e-07, No Iterations 10
bounding k, min: -0.00212247 max: 8.23493 average: 1.22248
ExecutionTime = 1.18 s  ClockTime = 2 s

Courant Number mean: 16.0885 max: 18.5025
Time = 0.06

PIMPLE: Iteration 1
diagonal:  Solving for rho, Initial residual = 0, Final residual = 0, No Iterations 0
smoothSolver:  Solving for Ux, Initial residual = 0.017281, Final residual = 0.000125135, No Iterations 6
smoothSolver:  Solving for Uy, Initial residual = 0.0295649, Final residual = 0.000149277, No Iterations 6
smoothSolver:  Solving for e, Initial residual = 0.0198035, Final residual = 0.000125074, No Iterations 6
DICPCG:  Solving for p, Initial residual = 0.0815673, Final residual = 7.32521e-07, No Iterations 71
diagonal:  Solving for rho, Initial residual = 0, Final residual = 0, No Iterations 0
time step continuity errors : sum local = 6.30094e-09, global = 2.0406e-13, cumulative = 5.79527e-11
PIMPLE: Iteration 2
smoothSolver:  Solving for Ux, Initial residual = 0.0138554, Final residual = 0.000100497, No Iterations 6
smoothSolver:  Solving for Uy, Initial residual = 0.0254403, Final residual = 0.000139787, No Iterations 6
smoothSolver:  Solving for e, Initial residual = 0.0162137, Final residual = 0.000107072, No Iterations 6
DICPCG:  Solving for p, Initial residual = 0.0636067, Final residual = 5.81932e-07, No Iterations 71
diagonal:  Solving for rho, Initial residual = 0, Final residual = 0, No Iterations 0
time step continuity errors : sum local = 4.85595e-09, global = -3.19476e-12, cumulative = 5.4758e-11
PIMPLE: Iteration 3
smoothSolver:  Solving for Ux, Initial residual = 0.0111409, Final residual = 5.41553e-07, No Iterations 12
smoothSolver:  Solving for Uy, Initial residual = 0.0201933, Final residual = 7.36136e-07, No Iterations 12
smoothSolver:  Solving for e, Initial residual = 0.0126534, Final residual = 5.12441e-07, No Iterations 12
DICPCG:  Solving for p, Initial residual = 0.0366008, Final residual = 7.29438e-07, No Iterations 71
diagonal:  Solving for rho, Initial residual = 0, Final residual = 0, No Iterations 0
time step continuity errors : sum local = 6.17268e-09, global = -1.78094e-12, cumulative = 5.2977e-11
smoothSolver:  Solving for k, Initial residual = 0.0242933, Final residual = 7.0009e-07, No Iterations 10
bounding k, min: -1.49807e-05 max: 8.22976 average: 1.19965
ExecutionTime = 1.26 s  ClockTime = 2 s

Courant Number mean: 16.0822 max: 18.6625
Time = 0.065

PIMPLE: Iteration 1
diagonal:  Solving for rho, Initial residual = 0, Final residual = 0, No Iterations 0
smoothSolver:  Solving for Ux, Initial residual = 0.0140894, Final residual = 0.000100357, No Iterations 6
smoothSolver:  Solving for Uy, Initial residual = 0.0245806, Final residual = 0.000123062, No Iterations 6
smoothSolver:  Solving for e, Initial residual = 0.0162493, Final residual = 0.000106814, No Iterations 6
DICPCG:  Solving for p, Initial residual = 0.0698562, Final residual = 5.71051e-07, No Iterations 71
diagonal:  Solving for rho, Initial residual = 0, Final residual = 0, No Iterations 0
time step continuity errors : sum local = 4.74981e-09, global = 8.33005e-13, cumulative = 5.381e-11
PIMPLE: Iteration 2
smoothSolver:  Solving for Ux, Initial residual = 0.0115529, Final residual = 8.25864e-05, No Iterations 6
smoothSolver:  Solving for Uy, Initial residual = 0.0212889, Final residual = 0.000116698, No Iterations 6
smoothSolver:  Solving for e, Initial residual = 0.0138352, Final residual = 9.34659e-05, No Iterations 6
DICPCG:  Solving for p, Initial residual = 0.0536835, Final residual = 7.97519e-07, No Iterations 71
diagonal:  Solving for rho, Initial residual = 0, Final residual = 0, No Iterations 0
time step continuity errors : sum local = 6.41912e-09, global = -4.9878e-12, cumulative = 4.88222e-11
PIMPLE: Iteration 3
smoothSolver:  Solving for Ux, Initial residual = 0.00928127, Final residual = 4.48826e-07, No Iterations 12
smoothSolver:  Solving for Uy, Initial residual = 0.017278, Final residual = 6.31524e-07, No Iterations 12
smoothSolver:  Solving for e, Initial residual = 0.0107347, Final residual = 4.44006e-07, No Iterations 12
DICPCG:  Solving for p, Initial residual = 0.0328153, Final residual = 6.19889e-07, No Iterations 71
diagonal:  Solving for rho, Initial residual = 0, Final residual = 0, No Iterations 0
time step continuity errors : sum local = 4.98848e-09, global = 2.17505e-12, cumulative = 5.09973e-11
smoothSolver:  Solving for k, Initial residual = 0.0191336, Final residual = 6.45296e-07, No Iterations 10
bounding k, min: -0.000999709 max: 8.22404 average: 1.19031
ExecutionTime = 1.34 s  ClockTime = 2 s

Courant Number mean: 16.0893 max: 18.8187
Time = 0.07

PIMPLE: Iteration 1
diagonal:  Solving for rho, Initial residual = 0, Final residual = 0, No Iterations 0
smoothSolver:  Solving for Ux, Initial residual = 0.0114586, Final residual = 8.04511e-05, No Iterations 6
smoothSolver:  Solving for Uy, Initial residual = 0.0206242, Final residual = 0.000107694, No Iterations 6
smoothSolver:  Solving for e, Initial residual = 0.0144274, Final residual = 9.57833e-05, No Iterations 6
DICPCG:  Solving for p, Initial residual = 0.065409, Final residual = 6.74248e-07, No Iterations 71
diagonal:  Solving for rho, Initial residual = 0, Final residual = 0, No Iterations 0
time step continuity errors : sum local = 5.3647e-09, global = 2.50341e-13, cumulative = 5.12476e-11
PIMPLE: Iteration 2
smoothSolver:  Solving for Ux, Initial residual = 0.0091518, Final residual = 6.45019e-05, No Iterations 6
smoothSolver:  Solving for Uy, Initial residual = 0.0180328, Final residual = 0.000101465, No Iterations 6
smoothSolver:  Solving for e, Initial residual = 0.0126638, Final residual = 8.32741e-05, No Iterations 6
DICPCG:  Solving for p, Initial residual = 0.0506365, Final residual = 7.49027e-07, No Iterations 71
diagonal:  Solving for rho, Initial residual = 0, Final residual = 0, No Iterations 0
time step continuity errors : sum local = 5.6922e-09, global = 7.93555e-12, cumulative = 5.91832e-11
PIMPLE: Iteration 3
smoothSolver:  Solving for Ux, Initial residual = 0.00739463, Final residual = 8.21275e-07, No Iterations 11
smoothSolver:  Solving for Uy, Initial residual = 0.0148979, Final residual = 5.5515e-07, No Iterations 12
smoothSolver:  Solving for e, Initial residual = 0.00971538, Final residual = 9.24533e-07, No Iterations 11
DICPCG:  Solving for p, Initial residual = 0.0300123, Final residual = 5.35382e-07, No Iterations 71
diagonal:  Solving for rho, Initial residual = 0, Final residual = 0, No Iterations 0
time step continuity errors : sum local = 4.0867e-09, global = 1.95223e-12, cumulative = 6.11354e-11
smoothSolver:  Solving for k, Initial residual = 0.0144995, Final residual = 5.12182e-07, No Iterations 10
bounding k, min: -5.54384e-05 max: 8.21849 average: 1.18317
ExecutionTime = 1.41 s  ClockTime = 2 s

Courant Number mean: 16.0888 max: 18.9483
Time = 0.075

PIMPLE: Iteration 1
diagonal:  Solving for rho, Initial residual = 0, Final residual = 0, No Iterations 0
smoothSolver:  Solving for Ux, Initial residual = 0.00917135, Final residual = 6.36213e-05, No Iterations 6
smoothSolver:  Solving for Uy, Initial residual = 0.0176319, Final residual = 9.31162e-05, No Iterations 6
smoothSolver:  Solving for e, Initial residual = 0.0127057, Final residual = 8.4662e-05, No Iterations 6
DICPCG:  Solving for p, Initial residual = 0.0566461, Final residual = 7.56011e-07, No Iterations 71
diagonal:  Solving for rho, Initial residual = 0, Final residual = 0, No Iterations 0
time step continuity errors : sum local = 5.72852e-09, global = 1.75107e-12, cumulative = 6.28865e-11
PIMPLE: Iteration 2
smoothSolver:  Solving for Ux, Initial residual = 0.00744404, Final residual = 5.2762e-05, No Iterations 6
smoothSolver:  Solving for Uy, Initial residual = 0.0157008, Final residual = 9.05111e-05, No Iterations 6
smoothSolver:  Solving for e, Initial residual = 0.0111566, Final residual = 7.36345e-05, No Iterations 6
DICPCG:  Solving for p, Initial residual = 0.0462357, Final residual = 8.31405e-07, No Iterations 71
diagonal:  Solving for rho, Initial residual = 0, Final residual = 0, No Iterations 0
time step continuity errors : sum local = 6.09015e-09, global = 4.21728e-12, cumulative = 6.71037e-11
PIMPLE: Iteration 3
smoothSolver:  Solving for Ux, Initial residual = 0.00611136, Final residual = 6.92395e-07, No Iterations 11
smoothSolver:  Solving for Uy, Initial residual = 0.0129705, Final residual = 4.92147e-07, No Iterations 12
smoothSolver:  Solving for e, Initial residual = 0.00865355, Final residual = 8.31344e-07, No Iterations 11
DICPCG:  Solving for p, Initial residual = 0.0267779, Final residual = 9.64768e-07, No Iterations 70
diagonal:  Solving for rho, Initial residual = 0, Final residual = 0, No Iterations 0
time step continuity errors : sum local = 7.13261e-09, global = 2.94681e-12, cumulative = 7.00506e-11
smoothSolver:  Solving for k, Initial residual = 0.0121794, Final residual = 4.64804e-07, No Iterations 10
bounding k, min: -0.00032274 max: 8.21423 average: 1.17781
ExecutionTime = 1.5 s  ClockTime = 2 s

Courant Number mean: 16.086 max: 19.0784
Time = 0.08

PIMPLE: Iteration 1
diagonal:  Solving for rho, Initial residual = 0, Final residual = 0, No Iterations 0
smoothSolver:  Solving for Ux, Initial residual = 0.00762208, Final residual = 5.35725e-05, No Iterations 6
smoothSolver:  Solving for Uy, Initial residual = 0.0153872, Final residual = 8.21798e-05, No Iterations 6
smoothSolver:  Solving for e, Initial residual = 0.0112001, Final residual = 7.43867e-05, No Iterations 6
DICPCG:  Solving for p, Initial residual = 0.0406788, Final residual = 7.48594e-07, No Iterations 70
diagonal:  Solving for rho, Initial residual = 0, Final residual = 0, No Iterations 0
time step continuity errors : sum local = 5.49824e-09, global = -8.54006e-13, cumulative = 6.91966e-11
PIMPLE: Iteration 2
smoothSolver:  Solving for Ux, Initial residual = 0.00633601, Final residual = 4.55694e-05, No Iterations 6
smoothSolver:  Solving for Uy, Initial residual = 0.0137444, Final residual = 8.07629e-05, No Iterations 6
smoothSolver:  Solving for e, Initial residual = 0.0097683, Final residual = 6.5009e-05, No Iterations 6
DICPCG:  Solving for p, Initial residual = 0.0382408, Final residual = 8.60191e-07, No Iterations 71
diagonal:  Solving for rho, Initial residual = 0, Final residual = 0, No Iterations 0
time step continuity errors : sum local = 6.19031e-09, global = 5.54298e-12, cumulative = 7.47395e-11
PIMPLE: Iteration 3
smoothSolver:  Solving for Ux, Initial residual = 0.00522814, Final residual = 5.99905e-07, No Iterations 11
smoothSolver:  Solving for Uy, Initial residual = 0.0115253, Final residual = 4.39289e-07, No Iterations 12
smoothSolver:  Solving for e, Initial residual = 0.00763136, Final residual = 7.41242e-07, No Iterations 11
DICPCG:  Solving for p, Initial residual = 0.0220692, Final residual = 8.46853e-07, No Iterations 70
diagonal:  Solving for rho, Initial residual = 0, Final residual = 0, No Iterations 0
time step continuity errors : sum local = 6.12834e-09, global = 1.92427e-13, cumulative = 7.4932e-11
smoothSolver:  Solving for k, Initial residual = 0.00952386, Final residual = 6.48276e-07, No Iterations 10
bounding k, min: -0.0100404 max: 8.21192 average: 1.17256
ExecutionTime = 1.59 s  ClockTime = 2 s

Courant Number mean: 16.0862 max: 19.2052
Time = 0.085

PIMPLE: Iteration 1
diagonal:  Solving for rho, Initial residual = 0, Final residual = 0, No Iterations 0
smoothSolver:  Solving for Ux, Initial residual = 0.0065086, Final residual = 4.68979e-05, No Iterations 6
smoothSolver:  Solving for Uy, Initial residual = 0.0137513, Final residual = 7.50092e-05, No Iterations 6
smoothSolver:  Solving for e, Initial residual = 0.010046, Final residual = 6.68057e-05, No Iterations 6
DICPCG:  Solving for p, Initial residual = 0.0366852, Final residual = 7.17454e-07, No Iterations 71
diagonal:  Solving for rho, Initial residual = 0, Final residual = 0, No Iterations 0
time step continuity errors : sum local = 5.1619e-09, global = -6.89052e-12, cumulative = 6.80414e-11
PIMPLE: Iteration 2
smoothSolver:  Solving for Ux, Initial residual = 0.00545407, Final residual = 3.99369e-05, No Iterations 6
smoothSolver:  Solving for Uy, Initial residual = 0.0126184, Final residual = 7.43474e-05, No Iterations 6
smoothSolver:  Solving for e, Initial residual = 0.00869788, Final residual = 5.8058e-05, No Iterations 6
DICPCG:  Solving for p, Initial residual = 0.0344422, Final residual = 7.85258e-07, No Iterations 71
diagonal:  Solving for rho, Initial residual = 0, Final residual = 0, No Iterations 0
time step continuity errors : sum local = 5.5782e-09, global = -6.48467e-13, cumulative = 6.7393e-11
PIMPLE: Iteration 3
smoothSolver:  Solving for Ux, Initial residual = 0.00451687, Final residual = 5.22191e-07, No Iterations 11
smoothSolver:  Solving for Uy, Initial residual = 0.010472, Final residual = 9.21964e-07, No Iterations 11
smoothSolver:  Solving for e, Initial residual = 0.00681621, Final residual = 6.53271e-07, No Iterations 11
DICPCG:  Solving for p, Initial residual = 0.0194729, Final residual = 6.53541e-07, No Iterations 70
diagonal:  Solving for rho, Initial residual = 0, Final residual = 0, No Iterations 0
time step continuity errors : sum local = 4.67568e-09, global = 4.38905e-12, cumulative = 7.1782e-11
smoothSolver:  Solving for k, Initial residual = 0.00806033, Final residual = 8.57855e-07, No Iterations 9
bounding k, min: -4.45864e-05 max: 8.21066 average: 1.16682
ExecutionTime = 1.67 s  ClockTime = 2 s

Courant Number mean: 16.0877 max: 19.322
Time = 0.09

PIMPLE: Iteration 1
diagonal:  Solving for rho, Initial residual = 0, Final residual = 0, No Iterations 0
smoothSolver:  Solving for Ux, Initial residual = 0.00563923, Final residual = 4.12143e-05, No Iterations 6
smoothSolver:  Solving for Uy, Initial residual = 0.0124659, Final residual = 6.92519e-05, No Iterations 6
smoothSolver:  Solving for e, Initial residual = 0.00901095, Final residual = 5.98775e-05, No Iterations 6
DICPCG:  Solving for p, Initial residual = 0.0340969, Final residual = 5.66072e-07, No Iterations 71
diagonal:  Solving for rho, Initial residual = 0, Final residual = 0, No Iterations 0
time step continuity errors : sum local = 4.04076e-09, global = -3.8435e-12, cumulative = 6.79385e-11
PIMPLE: Iteration 2
smoothSolver:  Solving for Ux, Initial residual = 0.00473293, Final residual = 3.50958e-05, No Iterations 6
smoothSolver:  Solving for Uy, Initial residual = 0.0117108, Final residual = 6.87287e-05, No Iterations 6
smoothSolver:  Solving for e, Initial residual = 0.00780843, Final residual = 5.23022e-05, No Iterations 6
DICPCG:  Solving for p, Initial residual = 0.0318437, Final residual = 9.16835e-07, No Iterations 71
diagonal:  Solving for rho, Initial residual = 0, Final residual = 0, No Iterations 0
time step continuity errors : sum local = 6.48233e-09, global = 2.85603e-12, cumulative = 7.07946e-11
PIMPLE: Iteration 3
smoothSolver:  Solving for Ux, Initial residual = 0.00395881, Final residual = 4.55839e-07, No Iterations 11
smoothSolver:  Solving for Uy, Initial residual = 0.00958074, Final residual = 8.48809e-07, No Iterations 11
smoothSolver:  Solving for e, Initial residual = 0.00614271, Final residual = 5.61054e-07, No Iterations 11
DICPCG:  Solving for p, Initial residual = 0.0172375, Final residual = 8.66628e-07, No Iterations 69
diagonal:  Solving for rho, Initial residual = 0, Final residual = 0, No Iterations 0
time step continuity errors : sum local = 6.1813e-09, global = 3.13964e-12, cumulative = 7.39342e-11
smoothSolver:  Solving for k, Initial residual = 0.0070631, Final residual = 5.62031e-07, No Iterations 10
bounding k, min: -0.00272861 max: 8.21067 average: 1.1625
ExecutionTime = 1.75 s  ClockTime = 2 s

Courant Number mean: 16.089 max: 19.434
Time = 0.095

PIMPLE: Iteration 1
diagonal:  Solving for rho, Initial residual = 0, Final residual = 0, No Iterations 0
smoothSolver:  Solving for Ux, Initial residual = 0.0049702, Final residual = 3.63523e-05, No Iterations 6
smoothSolver:  Solving for Uy, Initial residual = 0.0114645, Final residual = 6.42179e-05, No Iterations 6
smoothSolver:  Solving for e, Initial residual = 0.00810211, Final residual = 5.35295e-05, No Iterations 6
DICPCG:  Solving for p, Initial residual = 0.0305619, Final residual = 5.9241e-07, No Iterations 71
diagonal:  Solving for rho, Initial residual = 0, Final residual = 0, No Iterations 0
time step continuity errors : sum local = 4.22768e-09, global = -3.50723e-12, cumulative = 7.0427e-11
PIMPLE: Iteration 2
smoothSolver:  Solving for Ux, Initial residual = 0.00418052, Final residual = 3.10451e-05, No Iterations 6
smoothSolver:  Solving for Uy, Initial residual = 0.0107485, Final residual = 6.26874e-05, No Iterations 6
smoothSolver:  Solving for e, Initial residual = 0.00704836, Final residual = 4.69351e-05, No Iterations 6
DICPCG:  Solving for p, Initial residual = 0.029103, Final residual = 9.21305e-07, No Iterations 70
diagonal:  Solving for rho, Initial residual = 0, Final residual = 0, No Iterations 0
time step continuity errors : sum local = 6.53008e-09, global = -7.32451e-12, cumulative = 6.31025e-11
PIMPLE: Iteration 3
smoothSolver:  Solving for Ux, Initial residual = 0.00355013, Final residual = 9.26803e-07, No Iterations 10
smoothSolver:  Solving for Uy, Initial residual = 0.00883316, Final residual = 7.82829e-07, No Iterations 11
smoothSolver:  Solving for e, Initial residual = 0.00557466, Final residual = 4.78158e-07, No Iterations 11
DICPCG:  Solving for p, Initial residual = 0.0154901, Final residual = 6.5634e-07, No Iterations 69
diagonal:  Solving for rho, Initial residual = 0, Final residual = 0, No Iterations 0
time step continuity errors : sum local = 4.69422e-09, global = 1.04573e-12, cumulative = 6.41482e-11
smoothSolver:  Solving for k, Initial residual = 0.00588252, Final residual = 9.8654e-07, No Iterations 9
bounding k, min: -6.27273e-05 max: 8.21076 average: 1.15827
ExecutionTime = 1.84 s  ClockTime = 2 s

Courant Number mean: 16.0901 max: 19.5385
Time = 0.1

PIMPLE: Iteration 1
diagonal:  Solving for rho, Initial residual = 0, Final residual = 0, No Iterations 0
smoothSolver:  Solving for Ux, Initial residual = 0.00448173, Final residual = 3.22883e-05, No Iterations 6
smoothSolver:  Solving for Uy, Initial residual = 0.0105186, Final residual = 5.96608e-05, No Iterations 6
smoothSolver:  Solving for e, Initial residual = 0.00733868, Final residual = 4.62626e-05, No Iterations 6
DICPCG:  Solving for p, Initial residual = 0.027884, Final residual = 9.26778e-07, No Iterations 70
diagonal:  Solving for rho, Initial residual = 0, Final residual = 0, No Iterations 0
time step continuity errors : sum local = 6.63184e-09, global = 1.92379e-12, cumulative = 6.6072e-11
PIMPLE: Iteration 2
smoothSolver:  Solving for Ux, Initial residual = 0.00379354, Final residual = 2.76126e-05, No Iterations 6
smoothSolver:  Solving for Uy, Initial residual = 0.00992321, Final residual = 5.80498e-05, No Iterations 6
smoothSolver:  Solving for e, Initial residual = 0.0064303, Final residual = 4.07052e-05, No Iterations 6
DICPCG:  Solving for p, Initial residual = 0.0271784, Final residual = 6.22514e-07, No Iterations 71
diagonal:  Solving for rho, Initial residual = 0, Final residual = 0, No Iterations 0
time step continuity errors : sum local = 4.43041e-09, global = 2.13975e-12, cumulative = 6.82117e-11
PIMPLE: Iteration 3
smoothSolver:  Solving for Ux, Initial residual = 0.00323284, Final residual = 8.18077e-07, No Iterations 10
smoothSolver:  Solving for Uy, Initial residual = 0.00812066, Final residual = 7.27745e-07, No Iterations 11
smoothSolver:  Solving for e, Initial residual = 0.00507022, Final residual = 9.83356e-07, No Iterations 10
DICPCG:  Solving for p, Initial residual = 0.0142352, Final residual = 9.30815e-07, No Iterations 69
diagonal:  Solving for rho, Initial residual = 0, Final residual = 0, No Iterations 0
time step continuity errors : sum local = 6.68567e-09, global = 3.29371e-12, cumulative = 7.15054e-11
smoothSolver:  Solving for k, Initial residual = 0.00496981, Final residual = 5.24275e-07, No Iterations 10
bounding k, min: -0.00310246 max: 8.21115 average: 1.1539
ExecutionTime = 2.06 s  ClockTime = 3 s

Courant Number mean: 16.0911 max: 19.6363
Time = 0.105

PIMPLE: Iteration 1
diagonal:  Solving for rho, Initial residual = 0, Final residual = 0, No Iterations 0
smoothSolver:  Solving for Ux, Initial residual = 0.00408805, Final residual = 2.87929e-05, No Iterations 6
smoothSolver:  Solving for Uy, Initial residual = 0.00976998, Final residual = 5.59299e-05, No Iterations 6
smoothSolver:  Solving for e, Initial residual = 0.00663515, Final residual = 3.93348e-05, No Iterations 6
DICPCG:  Solving for p, Initial residual = 0.0260051, Final residual = 7.81503e-07, No Iterations 70
diagonal:  Solving for rho, Initial residual = 0, Final residual = 0, No Iterations 0
time step continuity errors : sum local = 5.62151e-09, global = -1.15577e-12, cumulative = 7.03497e-11
PIMPLE: Iteration 2
smoothSolver:  Solving for Ux, Initial residual = 0.00346198, Final residual = 2.46987e-05, No Iterations 6
smoothSolver:  Solving for Uy, Initial residual = 0.0092312, Final residual = 5.39392e-05, No Iterations 6
smoothSolver:  Solving for e, Initial residual = 0.00572632, Final residual = 3.47443e-05, No Iterations 6
DICPCG:  Solving for p, Initial residual = 0.0252765, Final residual = 7.83822e-07, No Iterations 71
diagonal:  Solving for rho, Initial residual = 0, Final residual = 0, No Iterations 0
time step continuity errors : sum local = 5.62359e-09, global = 3.31083e-12, cumulative = 7.36605e-11
PIMPLE: Iteration 3
smoothSolver:  Solving for Ux, Initial residual = 0.00295734, Final residual = 7.2687e-07, No Iterations 10
smoothSolver:  Solving for Uy, Initial residual = 0.00762013, Final residual = 6.79386e-07, No Iterations 11
smoothSolver:  Solving for e, Initial residual = 0.00453335, Final residual = 8.53796e-07, No Iterations 10
DICPCG:  Solving for p, Initial residual = 0.013134, Final residual = 6.83327e-07, No Iterations 70
diagonal:  Solving for rho, Initial residual = 0, Final residual = 0, No Iterations 0
time step continuity errors : sum local = 4.94319e-09, global = 1.71327e-12, cumulative = 7.53738e-11
smoothSolver:  Solving for k, Initial residual = 0.00457038, Final residual = 8.82401e-07, No Iterations 9
bounding k, min: -9.07772e-05 max: 8.21076 average: 1.15037
ExecutionTime = 2.13 s  ClockTime = 3 s

Courant Number mean: 16.092 max: 19.7289
Time = 0.11

PIMPLE: Iteration 1
diagonal:  Solving for rho, Initial residual = 0, Final residual = 0, No Iterations 0
smoothSolver:  Solving for Ux, Initial residual = 0.00373684, Final residual = 2.60453e-05, No Iterations 6
smoothSolver:  Solving for Uy, Initial residual = 0.00918831, Final residual = 5.33224e-05, No Iterations 6
smoothSolver:  Solving for e, Initial residual = 0.00581952, Final residual = 3.41516e-05, No Iterations 6
DICPCG:  Solving for p, Initial residual = 0.0253057, Final residual = 7.17531e-07, No Iterations 71
diagonal:  Solving for rho, Initial residual = 0, Final residual = 0, No Iterations 0
time step continuity errors : sum local = 5.18736e-09, global = -1.011e-12, cumulative = 7.43628e-11
PIMPLE: Iteration 2
smoothSolver:  Solving for Ux, Initial residual = 0.00316966, Final residual = 2.23364e-05, No Iterations 6
smoothSolver:  Solving for Uy, Initial residual = 0.00863933, Final residual = 5.1053e-05, No Iterations 6
smoothSolver:  Solving for e, Initial residual = 0.00492722, Final residual = 3.01802e-05, No Iterations 6
DICPCG:  Solving for p, Initial residual = 0.0242954, Final residual = 8.67486e-07, No Iterations 71
diagonal:  Solving for rho, Initial residual = 0, Final residual = 0, No Iterations 0
time step continuity errors : sum local = 6.24567e-09, global = 8.7276e-12, cumulative = 8.30904e-11
PIMPLE: Iteration 3
smoothSolver:  Solving for Ux, Initial residual = 0.00270564, Final residual = 6.52489e-07, No Iterations 10
smoothSolver:  Solving for Uy, Initial residual = 0.00726059, Final residual = 6.40422e-07, No Iterations 11
smoothSolver:  Solving for e, Initial residual = 0.00393333, Final residual = 7.709e-07, No Iterations 10
DICPCG:  Solving for p, Initial residual = 0.0125965, Final residual = 6.64294e-07, No Iterations 70
diagonal:  Solving for rho, Initial residual = 0, Final residual = 0, No Iterations 0
time step continuity errors : sum local = 4.80677e-09, global = 5.31728e-12, cumulative = 8.84076e-11
smoothSolver:  Solving for k, Initial residual = 0.00400862, Final residual = 9.83029e-07, No Iterations 9
bounding k, min: 0 max: 8.21042 average: 1.14699
ExecutionTime = 2.21 s  ClockTime = 3 s

Courant Number mean: 16.0929 max: 19.8233
Time = 0.115

PIMPLE: Iteration 1
diagonal:  Solving for rho, Initial residual = 0, Final residual = 0, No Iterations 0
smoothSolver:  Solving for Ux, Initial residual = 0.00341945, Final residual = 2.34875e-05, No Iterations 6
smoothSolver:  Solving for Uy, Initial residual = 0.00882682, Final residual = 5.10435e-05, No Iterations 6
smoothSolver:  Solving for e, Initial residual = 0.00496637, Final residual = 2.96395e-05, No Iterations 6
DICPCG:  Solving for p, Initial residual = 0.0252027, Final residual = 7.34868e-07, No Iterations 71
diagonal:  Solving for rho, Initial residual = 0, Final residual = 0, No Iterations 0
time step continuity errors : sum local = 5.32143e-09, global = -1.19078e-13, cumulative = 8.82886e-11
PIMPLE: Iteration 2
smoothSolver:  Solving for Ux, Initial residual = 0.00289668, Final residual = 2.01677e-05, No Iterations 6
smoothSolver:  Solving for Uy, Initial residual = 0.00809816, Final residual = 4.83795e-05, No Iterations 6
smoothSolver:  Solving for e, Initial residual = 0.00416546, Final residual = 2.65469e-05, No Iterations 6
DICPCG:  Solving for p, Initial residual = 0.022431, Final residual = 7.58253e-07, No Iterations 71
diagonal:  Solving for rho, Initial residual = 0, Final residual = 0, No Iterations 0
time step continuity errors : sum local = 5.49401e-09, global = 8.83029e-13, cumulative = 8.91716e-11
PIMPLE: Iteration 3
smoothSolver:  Solving for Ux, Initial residual = 0.00247453, Final residual = 5.86687e-07, No Iterations 10
smoothSolver:  Solving for Uy, Initial residual = 0.00694651, Final residual = 6.04116e-07, No Iterations 11
smoothSolver:  Solving for e, Initial residual = 0.0033522, Final residual = 6.65416e-07, No Iterations 10
DICPCG:  Solving for p, Initial residual = 0.0118079, Final residual = 6.48617e-07, No Iterations 70
diagonal:  Solving for rho, Initial residual = 0, Final residual = 0, No Iterations 0
time step continuity errors : sum local = 4.72155e-09, global = 6.48574e-12, cumulative = 9.56573e-11
smoothSolver:  Solving for k, Initial residual = 0.00369878, Final residual = 8.29741e-07, No Iterations 10
bounding k, min: -0.00933726 max: 8.20954 average: 1.14478
ExecutionTime = 2.3 s  ClockTime = 3 s

Courant Number mean: 16.0938 max: 19.9222
Time = 0.12

PIMPLE: Iteration 1
diagonal:  Solving for rho, Initial residual = 0, Final residual = 0, No Iterations 0
smoothSolver:  Solving for Ux, Initial residual = 0.00311848, Final residual = 2.11649e-05, No Iterations 6
smoothSolver:  Solving for Uy, Initial residual = 0.00830903, Final residual = 4.72617e-05, No Iterations 6
smoothSolver:  Solving for e, Initial residual = 0.00423617, Final residual = 2.68732e-05, No Iterations 6
DICPCG:  Solving for p, Initial residual = 0.0215278, Final residual = 9.51177e-07, No Iterations 70
diagonal:  Solving for rho, Initial residual = 0, Final residual = 0, No Iterations 0
time step continuity errors : sum local = 6.90812e-09, global = -8.63371e-12, cumulative = 8.70236e-11
PIMPLE: Iteration 2
smoothSolver:  Solving for Ux, Initial residual = 0.00264243, Final residual = 1.81792e-05, No Iterations 6
smoothSolver:  Solving for Uy, Initial residual = 0.00749927, Final residual = 4.54882e-05, No Iterations 6
smoothSolver:  Solving for e, Initial residual = 0.00361153, Final residual = 2.41558e-05, No Iterations 6
DICPCG:  Solving for p, Initial residual = 0.0191776, Final residual = 7.42028e-07, No Iterations 71
diagonal:  Solving for rho, Initial residual = 0, Final residual = 0, No Iterations 0
time step continuity errors : sum local = 5.37955e-09, global = -5.63302e-13, cumulative = 8.64603e-11
PIMPLE: Iteration 3
smoothSolver:  Solving for Ux, Initial residual = 0.00225706, Final residual = 5.2589e-07, No Iterations 10
smoothSolver:  Solving for Uy, Initial residual = 0.00657951, Final residual = 5.63991e-07, No Iterations 11
smoothSolver:  Solving for e, Initial residual = 0.00291215, Final residual = 5.50743e-07, No Iterations 10
DICPCG:  Solving for p, Initial residual = 0.0102243, Final residual = 7.39286e-07, No Iterations 69
diagonal:  Solving for rho, Initial residual = 0, Final residual = 0, No Iterations 0
time step continuity errors : sum local = 5.37015e-09, global = 5.91528e-12, cumulative = 9.23756e-11
smoothSolver:  Solving for k, Initial residual = 0.00314119, Final residual = 6.27101e-07, No Iterations 9
bounding k, min: 0 max: 8.2091 average: 1.14265
ExecutionTime = 2.37 s  ClockTime = 3 s

Courant Number mean: 16.0948 max: 20.0184
Time = 0.125

PIMPLE: Iteration 1
diagonal:  Solving for rho, Initial residual = 0, Final residual = 0, No Iterations 0
smoothSolver:  Solving for Ux, Initial residual = 0.00284121, Final residual = 1.90847e-05, No Iterations 6
smoothSolver:  Solving for Uy, Initial residual = 0.00780816, Final residual = 4.49385e-05, No Iterations 6
smoothSolver:  Solving for e, Initial residual = 0.00374078, Final residual = 2.32606e-05, No Iterations 6
DICPCG:  Solving for p, Initial residual = 0.0195156, Final residual = 9.69256e-07, No Iterations 70
diagonal:  Solving for rho, Initial residual = 0, Final residual = 0, No Iterations 0
time step continuity errors : sum local = 7.01948e-09, global = 2.35567e-13, cumulative = 9.26112e-11
PIMPLE: Iteration 2
smoothSolver:  Solving for Ux, Initial residual = 0.0024107, Final residual = 1.63657e-05, No Iterations 6
smoothSolver:  Solving for Uy, Initial residual = 0.00711982, Final residual = 4.32762e-05, No Iterations 6
smoothSolver:  Solving for e, Initial residual = 0.0033521, Final residual = 2.09729e-05, No Iterations 6
DICPCG:  Solving for p, Initial residual = 0.0177447, Final residual = 5.48434e-07, No Iterations 71
diagonal:  Solving for rho, Initial residual = 0, Final residual = 0, No Iterations 0
time step continuity errors : sum local = 3.96507e-09, global = 1.25456e-12, cumulative = 9.38657e-11
PIMPLE: Iteration 3
smoothSolver:  Solving for Ux, Initial residual = 0.00205682, Final residual = 4.70348e-07, No Iterations 10
smoothSolver:  Solving for Uy, Initial residual = 0.00621747, Final residual = 5.3325e-07, No Iterations 11
smoothSolver:  Solving for e, Initial residual = 0.00263634, Final residual = 4.40594e-07, No Iterations 10
DICPCG:  Solving for p, Initial residual = 0.00967681, Final residual = 9.99208e-07, No Iterations 68
diagonal:  Solving for rho, Initial residual = 0, Final residual = 0, No Iterations 0
time step continuity errors : sum local = 7.22998e-09, global = -8.4937e-12, cumulative = 8.5372e-11
smoothSolver:  Solving for k, Initial residual = 0.00297776, Final residual = 7.20596e-07, No Iterations 9
bounding k, min: -0.00346545 max: 8.20804 average: 1.14045
ExecutionTime = 2.46 s  ClockTime = 3 s

Courant Number mean: 16.0956 max: 20.1121
Time = 0.13

PIMPLE: Iteration 1
diagonal:  Solving for rho, Initial residual = 0, Final residual = 0, No Iterations 0
smoothSolver:  Solving for Ux, Initial residual = 0.00258963, Final residual = 1.71784e-05, No Iterations 6
smoothSolver:  Solving for Uy, Initial residual = 0.00738859, Final residual = 4.28731e-05, No Iterations 6
smoothSolver:  Solving for e, Initial residual = 0.00340223, Final residual = 1.9629e-05, No Iterations 6
DICPCG:  Solving for p, Initial residual = 0.0186234, Final residual = 8.12283e-07, No Iterations 70
diagonal:  Solving for rho, Initial residual = 0, Final residual = 0, No Iterations 0
time step continuity errors : sum local = 5.85715e-09, global = 4.6527e-12, cumulative = 9.00247e-11
PIMPLE: Iteration 2
smoothSolver:  Solving for Ux, Initial residual = 0.00219612, Final residual = 1.47273e-05, No Iterations 6
smoothSolver:  Solving for Uy, Initial residual = 0.00685429, Final residual = 4.10224e-05, No Iterations 6
smoothSolver:  Solving for e, Initial residual = 0.00302894, Final residual = 1.76377e-05, No Iterations 6
DICPCG:  Solving for p, Initial residual = 0.0169575, Final residual = 7.86269e-07, No Iterations 70
diagonal:  Solving for rho, Initial residual = 0, Final residual = 0, No Iterations 0
time step continuity errors : sum local = 5.66907e-09, global = -1.07386e-11, cumulative = 7.92861e-11
PIMPLE: Iteration 3
smoothSolver:  Solving for Ux, Initial residual = 0.00187135, Final residual = 9.85838e-07, No Iterations 9
smoothSolver:  Solving for Uy, Initial residual = 0.00584316, Final residual = 5.0118e-07, No Iterations 11
smoothSolver:  Solving for e, Initial residual = 0.00237742, Final residual = 8.61758e-07, No Iterations 9
DICPCG:  Solving for p, Initial residual = 0.00918911, Final residual = 5.4886e-07, No Iterations 69
diagonal:  Solving for rho, Initial residual = 0, Final residual = 0, No Iterations 0
time step continuity errors : sum local = 3.96466e-09, global = -1.90117e-12, cumulative = 7.7385e-11
smoothSolver:  Solving for k, Initial residual = 0.0028069, Final residual = 5.25135e-07, No Iterations 9
bounding k, min: -5.15556e-05 max: 8.20736 average: 1.1386
ExecutionTime = 2.53 s  ClockTime = 3 s

Courant Number mean: 16.0963 max: 20.2033
Time = 0.135

PIMPLE: Iteration 1
diagonal:  Solving for rho, Initial residual = 0, Final residual = 0, No Iterations 0
smoothSolver:  Solving for Ux, Initial residual = 0.00235584, Final residual = 1.54685e-05, No Iterations 6
smoothSolver:  Solving for Uy, Initial residual = 0.0070209, Final residual = 4.1479e-05, No Iterations 6
smoothSolver:  Solving for e, Initial residual = 0.00301537, Final residual = 1.61145e-05, No Iterations 6
DICPCG:  Solving for p, Initial residual = 0.0188782, Final residual = 9.03311e-07, No Iterations 70
diagonal:  Solving for rho, Initial residual = 0, Final residual = 0, No Iterations 0
time step continuity errors : sum local = 6.49098e-09, global = 5.02164e-12, cumulative = 8.24066e-11
PIMPLE: Iteration 2
smoothSolver:  Solving for Ux, Initial residual = 0.00199876, Final residual = 1.3257e-05, No Iterations 6
smoothSolver:  Solving for Uy, Initial residual = 0.00665804, Final residual = 3.91884e-05, No Iterations 6
smoothSolver:  Solving for e, Initial residual = 0.00260414, Final residual = 1.44263e-05, No Iterations 6
DICPCG:  Solving for p, Initial residual = 0.0171327, Final residual = 8.85521e-07, No Iterations 70
diagonal:  Solving for rho, Initial residual = 0, Final residual = 0, No Iterations 0
time step continuity errors : sum local = 6.34542e-09, global = -6.44216e-12, cumulative = 7.59644e-11
PIMPLE: Iteration 3
smoothSolver:  Solving for Ux, Initial residual = 0.00169915, Final residual = 8.7755e-07, No Iterations 9
smoothSolver:  Solving for Uy, Initial residual = 0.00555895, Final residual = 4.75245e-07, No Iterations 11
smoothSolver:  Solving for e, Initial residual = 0.00205622, Final residual = 6.80115e-07, No Iterations 9
DICPCG:  Solving for p, Initial residual = 0.00934714, Final residual = 6.07006e-07, No Iterations 70
diagonal:  Solving for rho, Initial residual = 0, Final residual = 0, No Iterations 0
time step continuity errors : sum local = 4.35163e-09, global = -1.75499e-12, cumulative = 7.42095e-11
smoothSolver:  Solving for k, Initial residual = 0.0026343, Final residual = 9.96009e-07, No Iterations 8
bounding k, min: 0 max: 8.20667 average: 1.13748
ExecutionTime = 2.61 s  ClockTime = 3 s

Courant Number mean: 16.0969 max: 20.2921
Time = 0.14

PIMPLE: Iteration 1
diagonal:  Solving for rho, Initial residual = 0, Final residual = 0, No Iterations 0
smoothSolver:  Solving for Ux, Initial residual = 0.00213994, Final residual = 1.38641e-05, No Iterations 6
smoothSolver:  Solving for Uy, Initial residual = 0.00675053, Final residual = 4.01644e-05, No Iterations 6
smoothSolver:  Solving for e, Initial residual = 0.0025652, Final residual = 1.3095e-05, No Iterations 6
DICPCG:  Solving for p, Initial residual = 0.0193054, Final residual = 9.33207e-07, No Iterations 70
diagonal:  Solving for rho, Initial residual = 0, Final residual = 0, No Iterations 0
time step continuity errors : sum local = 6.67236e-09, global = 6.98559e-12, cumulative = 8.1195e-11
PIMPLE: Iteration 2
smoothSolver:  Solving for Ux, Initial residual = 0.00180972, Final residual = 1.18703e-05, No Iterations 6
smoothSolver:  Solving for Uy, Initial residual = 0.00639445, Final residual = 3.74232e-05, No Iterations 6
smoothSolver:  Solving for e, Initial residual = 0.00215852, Final residual = 1.16474e-05, No Iterations 6
DICPCG:  Solving for p, Initial residual = 0.0164439, Final residual = 9.01136e-07, No Iterations 70
diagonal:  Solving for rho, Initial residual = 0, Final residual = 0, No Iterations 0
time step continuity errors : sum local = 6.45196e-09, global = -6.51718e-13, cumulative = 8.05433e-11
PIMPLE: Iteration 3
smoothSolver:  Solving for Ux, Initial residual = 0.00154016, Final residual = 7.77958e-07, No Iterations 9
smoothSolver:  Solving for Uy, Initial residual = 0.00529509, Final residual = 4.47183e-07, No Iterations 11
smoothSolver:  Solving for e, Initial residual = 0.00170605, Final residual = 5.4248e-07, No Iterations 9
DICPCG:  Solving for p, Initial residual = 0.00910407, Final residual = 7.08907e-07, No Iterations 70
diagonal:  Solving for rho, Initial residual = 0, Final residual = 0, No Iterations 0
time step continuity errors : sum local = 5.08727e-09, global = -1.21038e-12, cumulative = 7.93329e-11
smoothSolver:  Solving for k, Initial residual = 0.00234071, Final residual = 7.34927e-07, No Iterations 9
bounding k, min: -0.0101976 max: 8.20688 average: 1.13614
ExecutionTime = 2.69 s  ClockTime = 3 s

Courant Number mean: 16.0977 max: 20.3787
Time = 0.145

PIMPLE: Iteration 1
diagonal:  Solving for rho, Initial residual = 0, Final residual = 0, No Iterations 0
smoothSolver:  Solving for Ux, Initial residual = 0.00193661, Final residual = 1.23878e-05, No Iterations 6
smoothSolver:  Solving for Uy, Initial residual = 0.00647263, Final residual = 3.73428e-05, No Iterations 6
smoothSolver:  Solving for e, Initial residual = 0.00213474, Final residual = 1.06573e-05, No Iterations 6
DICPCG:  Solving for p, Initial residual = 0.0159043, Final residual = 7.99903e-07, No Iterations 70
diagonal:  Solving for rho, Initial residual = 0, Final residual = 0, No Iterations 0
time step continuity errors : sum local = 5.71695e-09, global = 5.35267e-12, cumulative = 8.46856e-11
PIMPLE: Iteration 2
smoothSolver:  Solving for Ux, Initial residual = 0.00163289, Final residual = 1.06151e-05, No Iterations 6
smoothSolver:  Solving for Uy, Initial residual = 0.00597812, Final residual = 3.48953e-05, No Iterations 6
smoothSolver:  Solving for e, Initial residual = 0.00175612, Final residual = 9.38009e-06, No Iterations 6
DICPCG:  Solving for p, Initial residual = 0.0142067, Final residual = 7.76778e-07, No Iterations 70
diagonal:  Solving for rho, Initial residual = 0, Final residual = 0, No Iterations 0
time step continuity errors : sum local = 5.54095e-09, global = -1.90674e-12, cumulative = 8.27789e-11
PIMPLE: Iteration 3
smoothSolver:  Solving for Ux, Initial residual = 0.0013935, Final residual = 6.86558e-07, No Iterations 9
smoothSolver:  Solving for Uy, Initial residual = 0.00502715, Final residual = 9.66249e-07, No Iterations 10
smoothSolver:  Solving for e, Initial residual = 0.00138175, Final residual = 4.41263e-07, No Iterations 9
DICPCG:  Solving for p, Initial residual = 0.00807578, Final residual = 6.55158e-07, No Iterations 69
diagonal:  Solving for rho, Initial residual = 0, Final residual = 0, No Iterations 0
time step continuity errors : sum local = 4.67742e-09, global = -1.46598e-12, cumulative = 8.13129e-11
smoothSolver:  Solving for k, Initial residual = 0.00214036, Final residual = 8.90052e-07, No Iterations 8
bounding k, min: 0 max: 8.20694 average: 1.13481
ExecutionTime = 2.77 s  ClockTime = 3 s

Courant Number mean: 16.0985 max: 20.4636
Time = 0.15

PIMPLE: Iteration 1
diagonal:  Solving for rho, Initial residual = 0, Final residual = 0, No Iterations 0
smoothSolver:  Solving for Ux, Initial residual = 0.00174979, Final residual = 1.10768e-05, No Iterations 6
smoothSolver:  Solving for Uy, Initial residual = 0.00612603, Final residual = 3.56993e-05, No Iterations 6
smoothSolver:  Solving for e, Initial residual = 0.00176105, Final residual = 8.82273e-06, No Iterations 6
DICPCG:  Solving for p, Initial residual = 0.0135505, Final residual = 6.17213e-07, No Iterations 70
diagonal:  Solving for rho, Initial residual = 0, Final residual = 0, No Iterations 0
time step continuity errors : sum local = 4.39174e-09, global = -1.26162e-12, cumulative = 8.00513e-11
PIMPLE: Iteration 2
smoothSolver:  Solving for Ux, Initial residual = 0.00147437, Final residual = 9.44749e-06, No Iterations 6
smoothSolver:  Solving for Uy, Initial residual = 0.00562562, Final residual = 3.33335e-05, No Iterations 6
smoothSolver:  Solving for e, Initial residual = 0.00143171, Final residual = 7.64381e-06, No Iterations 6
DICPCG:  Solving for p, Initial residual = 0.0132453, Final residual = 6.67868e-07, No Iterations 71
diagonal:  Solving for rho, Initial residual = 0, Final residual = 0, No Iterations 0
time step continuity errors : sum local = 4.74011e-09, global = 8.801e-13, cumulative = 8.09314e-11
PIMPLE: Iteration 3
smoothSolver:  Solving for Ux, Initial residual = 0.00126147, Final residual = 6.00014e-07, No Iterations 9
smoothSolver:  Solving for Uy, Initial residual = 0.00479826, Final residual = 9.08608e-07, No Iterations 10
smoothSolver:  Solving for e, Initial residual = 0.00111897, Final residual = 8.94122e-07, No Iterations 8
DICPCG:  Solving for p, Initial residual = 0.00761676, Final residual = 6.69757e-07, No Iterations 70
diagonal:  Solving for rho, Initial residual = 0, Final residual = 0, No Iterations 0
time step continuity errors : sum local = 4.75323e-09, global = 6.73251e-13, cumulative = 8.16046e-11
smoothSolver:  Solving for k, Initial residual = 0.00192793, Final residual = 7.73284e-07, No Iterations 8
bounding k, min: -0.00213168 max: 8.2074 average: 1.13418
ExecutionTime = 2.84 s  ClockTime = 4 s

Courant Number mean: 16.0994 max: 20.5465
Time = 0.155

PIMPLE: Iteration 1
diagonal:  Solving for rho, Initial residual = 0, Final residual = 0, No Iterations 0
smoothSolver:  Solving for Ux, Initial residual = 0.00158145, Final residual = 9.83445e-06, No Iterations 6
smoothSolver:  Solving for Uy, Initial residual = 0.00586392, Final residual = 3.41846e-05, No Iterations 6
smoothSolver:  Solving for e, Initial residual = 0.00146468, Final residual = 7.42178e-06, No Iterations 6
DICPCG:  Solving for p, Initial residual = 0.0137157, Final residual = 7.68479e-07, No Iterations 70
diagonal:  Solving for rho, Initial residual = 0, Final residual = 0, No Iterations 0
time step continuity errors : sum local = 5.44129e-09, global = 3.54142e-12, cumulative = 8.51461e-11
PIMPLE: Iteration 2
smoothSolver:  Solving for Ux, Initial residual = 0.00133092, Final residual = 8.37413e-06, No Iterations 6
smoothSolver:  Solving for Uy, Initial residual = 0.00536683, Final residual = 3.19353e-05, No Iterations 6
smoothSolver:  Solving for e, Initial residual = 0.00119116, Final residual = 6.35715e-06, No Iterations 6
DICPCG:  Solving for p, Initial residual = 0.0127986, Final residual = 7.82678e-07, No Iterations 71
diagonal:  Solving for rho, Initial residual = 0, Final residual = 0, No Iterations 0
time step continuity errors : sum local = 5.53401e-09, global = 2.66077e-12, cumulative = 8.78068e-11
PIMPLE: Iteration 3
smoothSolver:  Solving for Ux, Initial residual = 0.00114019, Final residual = 5.17924e-07, No Iterations 9
smoothSolver:  Solving for Uy, Initial residual = 0.00460832, Final residual = 8.60069e-07, No Iterations 10
smoothSolver:  Solving for e, Initial residual = 0.000923108, Final residual = 7.44048e-07, No Iterations 8
DICPCG:  Solving for p, Initial residual = 0.00724724, Final residual = 7.26696e-07, No Iterations 70
diagonal:  Solving for rho, Initial residual = 0, Final residual = 0, No Iterations 0
time step continuity errors : sum local = 5.14113e-09, global = 1.39055e-13, cumulative = 8.79459e-11
smoothSolver:  Solving for k, Initial residual = 0.00173578, Final residual = 6.18904e-07, No Iterations 8
bounding k, min: 0 max: 8.20731 average: 1.13358
ExecutionTime = 2.93 s  ClockTime = 4 s

Courant Number mean: 16.1003 max: 20.6273
Time = 0.16

PIMPLE: Iteration 1
diagonal:  Solving for rho, Initial residual = 0, Final residual = 0, No Iterations 0
smoothSolver:  Solving for Ux, Initial residual = 0.0014275, Final residual = 8.69567e-06, No Iterations 6
smoothSolver:  Solving for Uy, Initial residual = 0.00566392, Final residual = 3.31148e-05, No Iterations 6
smoothSolver:  Solving for e, Initial residual = 0.00124062, Final residual = 6.26662e-06, No Iterations 6
DICPCG:  Solving for p, Initial residual = 0.0139301, Final residual = 5.28275e-07, No Iterations 71
diagonal:  Solving for rho, Initial residual = 0, Final residual = 0, No Iterations 0
time step continuity errors : sum local = 3.727e-09, global = -3.30714e-13, cumulative = 8.76152e-11
PIMPLE: Iteration 2
smoothSolver:  Solving for Ux, Initial residual = 0.00120267, Final residual = 7.3689e-06, No Iterations 6
smoothSolver:  Solving for Uy, Initial residual = 0.00518995, Final residual = 3.06226e-05, No Iterations 6
smoothSolver:  Solving for e, Initial residual = 0.00101239, Final residual = 5.39651e-06, No Iterations 6
DICPCG:  Solving for p, Initial residual = 0.0127823, Final residual = 8.08742e-07, No Iterations 71
diagonal:  Solving for rho, Initial residual = 0, Final residual = 0, No Iterations 0
time step continuity errors : sum local = 5.68584e-09, global = 1.97574e-12, cumulative = 8.95909e-11
PIMPLE: Iteration 3
smoothSolver:  Solving for Ux, Initial residual = 0.00102969, Final residual = 4.37886e-07, No Iterations 9
smoothSolver:  Solving for Uy, Initial residual = 0.0044617, Final residual = 8.10299e-07, No Iterations 10
smoothSolver:  Solving for e, Initial residual = 0.000778044, Final residual = 6.19802e-07, No Iterations 8
DICPCG:  Solving for p, Initial residual = 0.00719024, Final residual = 6.95928e-07, No Iterations 70
diagonal:  Solving for rho, Initial residual = 0, Final residual = 0, No Iterations 0
time step continuity errors : sum local = 4.89157e-09, global = 5.4042e-12, cumulative = 9.49951e-11
smoothSolver:  Solving for k, Initial residual = 0.00161851, Final residual = 8.64738e-07, No Iterations 8
bounding k, min: -5.13406e-05 max: 8.20778 average: 1.13265
ExecutionTime = 3 s  ClockTime = 4 s

Courant Number mean: 16.1011 max: 20.7061
Time = 0.165

PIMPLE: Iteration 1
diagonal:  Solving for rho, Initial residual = 0, Final residual = 0, No Iterations 0
smoothSolver:  Solving for Ux, Initial residual = 0.00129131, Final residual = 7.58079e-06, No Iterations 6
smoothSolver:  Solving for Uy, Initial residual = 0.00555369, Final residual = 3.18883e-05, No Iterations 6
smoothSolver:  Solving for e, Initial residual = 0.00107141, Final residual = 5.33174e-06, No Iterations 6
DICPCG:  Solving for p, Initial residual = 0.0146951, Final residual = 5.89044e-07, No Iterations 71
diagonal:  Solving for rho, Initial residual = 0, Final residual = 0, No Iterations 0
time step continuity errors : sum local = 4.13894e-09, global = -3.74732e-13, cumulative = 9.46204e-11
PIMPLE: Iteration 2
smoothSolver:  Solving for Ux, Initial residual = 0.0010863, Final residual = 6.408e-06, No Iterations 6
smoothSolver:  Solving for Uy, Initial residual = 0.00506788, Final residual = 2.91221e-05, No Iterations 6
smoothSolver:  Solving for e, Initial residual = 0.000883962, Final residual = 4.61942e-06, No Iterations 6
DICPCG:  Solving for p, Initial residual = 0.0124101, Final residual = 5.90712e-07, No Iterations 71
diagonal:  Solving for rho, Initial residual = 0, Final residual = 0, No Iterations 0
time step continuity errors : sum local = 4.1519e-09, global = -2.79919e-12, cumulative = 9.18212e-11
PIMPLE: Iteration 3
smoothSolver:  Solving for Ux, Initial residual = 0.000928291, Final residual = 8.9837e-07, No Iterations 8
smoothSolver:  Solving for Uy, Initial residual = 0.00429967, Final residual = 7.66017e-07, No Iterations 10
smoothSolver:  Solving for e, Initial residual = 0.000672207, Final residual = 5.09801e-07, No Iterations 8
DICPCG:  Solving for p, Initial residual = 0.00685915, Final residual = 7.3901e-07, No Iterations 70
diagonal:  Solving for rho, Initial residual = 0, Final residual = 0, No Iterations 0
time step continuity errors : sum local = 5.20366e-09, global = -1.32612e-12, cumulative = 9.04951e-11
smoothSolver:  Solving for k, Initial residual = 0.00146324, Final residual = 9.97792e-07, No Iterations 8
bounding k, min: -0.00879311 max: 8.20784 average: 1.13247
ExecutionTime = 3.08 s  ClockTime = 4 s

Courant Number mean: 16.1019 max: 20.7829
Time = 0.17

PIMPLE: Iteration 1
diagonal:  Solving for rho, Initial residual = 0, Final residual = 0, No Iterations 0
smoothSolver:  Solving for Ux, Initial residual = 0.00116183, Final residual = 6.4781e-06, No Iterations 6
smoothSolver:  Solving for Uy, Initial residual = 0.00535306, Final residual = 2.96331e-05, No Iterations 6
smoothSolver:  Solving for e, Initial residual = 0.000952083, Final residual = 4.50654e-06, No Iterations 6
DICPCG:  Solving for p, Initial residual = 0.0129091, Final residual = 7.01721e-07, No Iterations 71
diagonal:  Solving for rho, Initial residual = 0, Final residual = 0, No Iterations 0
time step continuity errors : sum local = 4.9309e-09, global = -3.70786e-12, cumulative = 8.67872e-11
PIMPLE: Iteration 2
smoothSolver:  Solving for Ux, Initial residual = 0.000977435, Final residual = 5.45905e-06, No Iterations 6
smoothSolver:  Solving for Uy, Initial residual = 0.00482424, Final residual = 2.70505e-05, No Iterations 6
smoothSolver:  Solving for e, Initial residual = 0.000794502, Final residual = 3.92843e-06, No Iterations 6
DICPCG:  Solving for p, Initial residual = 0.0108009, Final residual = 6.97701e-07, No Iterations 71
diagonal:  Solving for rho, Initial residual = 0, Final residual = 0, No Iterations 0
time step continuity errors : sum local = 4.89226e-09, global = 1.24152e-12, cumulative = 8.80287e-11
PIMPLE: Iteration 3
smoothSolver:  Solving for Ux, Initial residual = 0.000831582, Final residual = 7.29004e-07, No Iterations 8
smoothSolver:  Solving for Uy, Initial residual = 0.00406592, Final residual = 7.03539e-07, No Iterations 10
smoothSolver:  Solving for e, Initial residual = 0.000599432, Final residual = 4.06961e-07, No Iterations 8
DICPCG:  Solving for p, Initial residual = 0.00582324, Final residual = 5.47509e-07, No Iterations 70
diagonal:  Solving for rho, Initial residual = 0, Final residual = 0, No Iterations 0
time step continuity errors : sum local = 3.8428e-09, global = -3.13955e-13, cumulative = 8.77148e-11
smoothSolver:  Solving for k, Initial residual = 0.00129641, Final residual = 4.85164e-07, No Iterations 8
bounding k, min: 0 max: 8.20829 average: 1.13197
ExecutionTime = 3.16 s  ClockTime = 4 s

Courant Number mean: 16.1026 max: 20.8579
Time = 0.175

PIMPLE: Iteration 1
diagonal:  Solving for rho, Initial residual = 0, Final residual = 0, No Iterations 0
[...]
smoothSolver:  Solving for e, Initial residual = 2.32984e-06, Final residual = 6.73432e-07, No Iterations 1
DICPCG:  Solving for p, Initial residual = 0.00390291, Final residual = 7.27729e-07, No Iterations 65
diagonal:  Solving for rho, Initial residual = 0, Final residual = 0, No Iterations 0
time step continuity errors : sum local = 5.01834e-09, global = 7.44788e-12, cumulative = 1.97159e-09
PIMPLE: Iteration 2
smoothSolver:  Solving for Ux, Initial residual = 5.60031e-06, Final residual = 7.68941e-07, No Iterations 2
smoothSolver:  Solving for Uy, Initial residual = 0.000167266, Final residual = 1.56268e-06, No Iterations 5
smoothSolver:  Solving for e, Initial residual = 2.60648e-06, Final residual = 7.70716e-07, No Iterations 1
DICPCG:  Solving for p, Initial residual = 0.00154159, Final residual = 9.13871e-07, No Iterations 65
diagonal:  Solving for rho, Initial residual = 0, Final residual = 0, No Iterations 0
time step continuity errors : sum local = 6.30671e-09, global = -1.0813e-11, cumulative = 1.96078e-09
PIMPLE: Iteration 3
smoothSolver:  Solving for Ux, Initial residual = 3.77416e-06, Final residual = 5.32701e-07, No Iterations 2
smoothSolver:  Solving for Uy, Initial residual = 0.000113047, Final residual = 4.57482e-07, No Iterations 6
smoothSolver:  Solving for e, Initial residual = 2.16659e-06, Final residual = 4.78442e-07, No Iterations 1
DICPCG:  Solving for p, Initial residual = 0.000923412, Final residual = 7.06489e-07, No Iterations 64
diagonal:  Solving for rho, Initial residual = 0, Final residual = 0, No Iterations 0
time step continuity errors : sum local = 4.87823e-09, global = -5.90409e-12, cumulative = 1.95488e-09
smoothSolver:  Solving for k, Initial residual = 0.000141525, Final residual = 6.81619e-07, No Iterations 7
bounding k, min: -0.0100304 max: 8.20779 average: 1.13187
ExecutionTime = 7.82 s  ClockTime = 9 s

Courant Number mean: 16.1053 max: 21.3666
Time = 0.465

PIMPLE: Iteration 1
diagonal:  Solving for rho, Initial residual = 0, Final residual = 0, No Iterations 0
smoothSolver:  Solving for Ux, Initial residual = 6.4796e-06, Final residual = 6.18126e-07, No Iterations 2
smoothSolver:  Solving for Uy, Initial residual = 0.000149693, Final residual = 1.49235e-06, No Iterations 5
smoothSolver:  Solving for e, Initial residual = 2.51092e-06, Final residual = 8.14832e-07, No Iterations 1
DICPCG:  Solving for p, Initial residual = 0.00177016, Final residual = 6.03222e-07, No Iterations 63
diagonal:  Solving for rho, Initial residual = 0, Final residual = 0, No Iterations 0
time step continuity errors : sum local = 4.16404e-09, global = 3.57731e-12, cumulative = 1.95845e-09
PIMPLE: Iteration 2
smoothSolver:  Solving for Ux, Initial residual = 4.02976e-06, Final residual = 5.8943e-07, No Iterations 2
smoothSolver:  Solving for Uy, Initial residual = 0.000100264, Final residual = 4.3183e-07, No Iterations 6
smoothSolver:  Solving for e, Initial residual = 2.16543e-06, Final residual = 4.88065e-07, No Iterations 1
DICPCG:  Solving for p, Initial residual = 0.000684318, Final residual = 8.11032e-07, No Iterations 63
diagonal:  Solving for rho, Initial residual = 0, Final residual = 0, No Iterations 0
time step continuity errors : sum local = 5.59705e-09, global = -1.26604e-11, cumulative = 1.94579e-09
PIMPLE: Iteration 3
smoothSolver:  Solving for Ux, Initial residual = 3.07687e-06, Final residual = 4.58402e-07, No Iterations 2
smoothSolver:  Solving for Uy, Initial residual = 7.7108e-05, Final residual = 6.72039e-07, No Iterations 5
smoothSolver:  Solving for e, Initial residual = 1.29336e-06, Final residual = 3.39024e-07, No Iterations 1
DICPCG:  Solving for p, Initial residual = 0.000422017, Final residual = 9.23918e-07, No Iterations 61
diagonal:  Solving for rho, Initial residual = 0, Final residual = 0, No Iterations 0
time step continuity errors : sum local = 6.37486e-09, global = 1.04227e-11, cumulative = 1.95622e-09
smoothSolver:  Solving for k, Initial residual = 0.000103657, Final residual = 5.77182e-07, No Iterations 4
bounding k, min: -0.000186126 max: 8.20756 average: 1.13188
ExecutionTime = 7.89 s  ClockTime = 9 s

Courant Number mean: 16.1053 max: 21.3667
Time = 0.47

PIMPLE: Iteration 1
diagonal:  Solving for rho, Initial residual = 0, Final residual = 0, No Iterations 0
smoothSolver:  Solving for Ux, Initial residual = 4.57539e-06, Final residual = 5.87969e-07, No Iterations 2
smoothSolver:  Solving for Uy, Initial residual = 0.000101349, Final residual = 4.73571e-07, No Iterations 6
smoothSolver:  Solving for e, Initial residual = 2.1715e-06, Final residual = 6.5076e-07, No Iterations 1
DICPCG:  Solving for p, Initial residual = 0.000724453, Final residual = 9.90466e-07, No Iterations 61
diagonal:  Solving for rho, Initial residual = 0, Final residual = 0, No Iterations 0
time step continuity errors : sum local = 6.83337e-09, global = -9.23711e-12, cumulative = 1.94698e-09
PIMPLE: Iteration 2
smoothSolver:  Solving for Ux, Initial residual = 3.32252e-06, Final residual = 4.62563e-07, No Iterations 2
smoothSolver:  Solving for Uy, Initial residual = 8.22526e-05, Final residual = 7.8901e-07, No Iterations 5
smoothSolver:  Solving for e, Initial residual = 1.82982e-06, Final residual = 4.58145e-07, No Iterations 1
DICPCG:  Solving for p, Initial residual = 0.000432232, Final residual = 6.04121e-07, No Iterations 62
diagonal:  Solving for rho, Initial residual = 0, Final residual = 0, No Iterations 0
time step continuity errors : sum local = 4.16702e-09, global = -4.54538e-12, cumulative = 1.94243e-09
PIMPLE: Iteration 3
smoothSolver:  Solving for Ux, Initial residual = 2.55946e-06, Final residual = 9.7134e-07, No Iterations 1
smoothSolver:  Solving for Uy, Initial residual = 6.07536e-05, Final residual = 5.81056e-07, No Iterations 5
smoothSolver:  Solving for e, Initial residual = 1.42372e-06, Final residual = 3.30296e-07, No Iterations 1
DICPCG:  Solving for p, Initial residual = 0.000256493, Final residual = 7.65345e-07, No Iterations 61
diagonal:  Solving for rho, Initial residual = 0, Final residual = 0, No Iterations 0
time step continuity errors : sum local = 5.27782e-09, global = -8.45325e-12, cumulative = 1.93398e-09
smoothSolver:  Solving for k, Initial residual = 0.000115103, Final residual = 4.0482e-07, No Iterations 4
bounding k, min: -0.00398885 max: 8.20737 average: 1.13188
ExecutionTime = 7.97 s  ClockTime = 9 s

Courant Number mean: 16.1053 max: 21.3667
Time = 0.475

PIMPLE: Iteration 1
diagonal:  Solving for rho, Initial residual = 0, Final residual = 0, No Iterations 0
smoothSolver:  Solving for Ux, Initial residual = 4.39231e-06, Final residual = 5.81379e-07, No Iterations 2
smoothSolver:  Solving for Uy, Initial residual = 8.92764e-05, Final residual = 9.92291e-07, No Iterations 5
smoothSolver:  Solving for e, Initial residual = 1.85674e-06, Final residual = 5.60517e-07, No Iterations 1
DICPCG:  Solving for p, Initial residual = 0.000890745, Final residual = 8.78263e-07, No Iterations 63
diagonal:  Solving for rho, Initial residual = 0, Final residual = 0, No Iterations 0
time step continuity errors : sum local = 6.05647e-09, global = 1.9565e-11, cumulative = 1.95354e-09
PIMPLE: Iteration 2
smoothSolver:  Solving for Ux, Initial residual = 3.26561e-06, Final residual = 5.04134e-07, No Iterations 2
smoothSolver:  Solving for Uy, Initial residual = 7.87852e-05, Final residual = 7.54063e-07, No Iterations 5
smoothSolver:  Solving for e, Initial residual = 1.5348e-06, Final residual = 3.9146e-07, No Iterations 1
DICPCG:  Solving for p, Initial residual = 0.000387034, Final residual = 8.10844e-07, No Iterations 53
diagonal:  Solving for rho, Initial residual = 0, Final residual = 0, No Iterations 0
time step continuity errors : sum local = 5.59238e-09, global = 5.55144e-10, cumulative = 2.50869e-09
PIMPLE: Iteration 3
smoothSolver:  Solving for Ux, Initial residual = 2.29264e-06, Final residual = 8.95442e-07, No Iterations 1
smoothSolver:  Solving for Uy, Initial residual = 5.00119e-05, Final residual = 4.96691e-07, No Iterations 5
smoothSolver:  Solving for e, Initial residual = 1.21163e-06, Final residual = 2.93635e-07, No Iterations 1
DICPCG:  Solving for p, Initial residual = 0.000230536, Final residual = 8.64636e-07, No Iterations 50
diagonal:  Solving for rho, Initial residual = 0, Final residual = 0, No Iterations 0
time step continuity errors : sum local = 5.96372e-09, global = -1.4234e-09, cumulative = 1.08528e-09
smoothSolver:  Solving for k, Initial residual = 0.000109032, Final residual = 6.11048e-07, No Iterations 4
bounding k, min: -0.000393112 max: 8.20644 average: 1.13188
ExecutionTime = 8.04 s  ClockTime = 9 s

Courant Number mean: 16.1053 max: 21.3666
Time = 0.48

PIMPLE: Iteration 1
diagonal:  Solving for rho, Initial residual = 0, Final residual = 0, No Iterations 0
smoothSolver:  Solving for Ux, Initial residual = 4.45193e-06, Final residual = 6.73872e-07, No Iterations 2
smoothSolver:  Solving for Uy, Initial residual = 8.67319e-05, Final residual = 6.18961e-07, No Iterations 6
smoothSolver:  Solving for e, Initial residual = 1.74257e-06, Final residual = 5.38545e-07, No Iterations 1
DICPCG:  Solving for p, Initial residual = 0.00134508, Final residual = 9.2615e-07, No Iterations 37
diagonal:  Solving for rho, Initial residual = 0, Final residual = 0, No Iterations 0
time step continuity errors : sum local = 6.38624e-09, global = -5.52173e-10, cumulative = 5.33111e-10
PIMPLE: Iteration 2
smoothSolver:  Solving for Ux, Initial residual = 3.71583e-06, Final residual = 5.25705e-07, No Iterations 2
smoothSolver:  Solving for Uy, Initial residual = 9.33737e-05, Final residual = 8.51837e-07, No Iterations 5
smoothSolver:  Solving for e, Initial residual = 1.66024e-06, Final residual = 5.35775e-07, No Iterations 1
DICPCG:  Solving for p, Initial residual = 0.000689466, Final residual = 7.22836e-07, No Iterations 63
diagonal:  Solving for rho, Initial residual = 0, Final residual = 0, No Iterations 0
time step continuity errors : sum local = 4.98182e-09, global = -2.33188e-12, cumulative = 5.30779e-10
PIMPLE: Iteration 3
smoothSolver:  Solving for Ux, Initial residual = 2.66415e-06, Final residual = 3.93393e-07, No Iterations 2
smoothSolver:  Solving for Uy, Initial residual = 6.28827e-05, Final residual = 5.90674e-07, No Iterations 5
smoothSolver:  Solving for e, Initial residual = 1.54894e-06, Final residual = 3.91516e-07, No Iterations 1
DICPCG:  Solving for p, Initial residual = 0.000434974, Final residual = 8.4623e-07, No Iterations 62
diagonal:  Solving for rho, Initial residual = 0, Final residual = 0, No Iterations 0
time step continuity errors : sum local = 5.8301e-09, global = 6.26608e-12, cumulative = 5.37045e-10
smoothSolver:  Solving for k, Initial residual = 0.000129213, Final residual = 7.14706e-07, No Iterations 4
bounding k, min: 0 max: 8.20634 average: 1.13189
ExecutionTime = 8.11 s  ClockTime = 9 s

Courant Number mean: 16.1053 max: 21.3666
Time = 0.485

PIMPLE: Iteration 1
diagonal:  Solving for rho, Initial residual = 0, Final residual = 0, No Iterations 0
smoothSolver:  Solving for Ux, Initial residual = 5.42651e-06, Final residual = 7.60798e-07, No Iterations 2
smoothSolver:  Solving for Uy, Initial residual = 0.000112574, Final residual = 8.39215e-07, No Iterations 6
smoothSolver:  Solving for e, Initial residual = 1.95103e-06, Final residual = 6.16733e-07, No Iterations 1
DICPCG:  Solving for p, Initial residual = 0.00184748, Final residual = 8.48197e-07, No Iterations 52
diagonal:  Solving for rho, Initial residual = 0, Final residual = 0, No Iterations 0
time step continuity errors : sum local = 5.84726e-09, global = 4.44477e-10, cumulative = 9.81523e-10
PIMPLE: Iteration 2
smoothSolver:  Solving for Ux, Initial residual = 3.97446e-06, Final residual = 6.08614e-07, No Iterations 2
smoothSolver:  Solving for Uy, Initial residual = 0.00010863, Final residual = 4.69578e-07, No Iterations 6
smoothSolver:  Solving for e, Initial residual = 2.05457e-06, Final residual = 5.84041e-07, No Iterations 1
DICPCG:  Solving for p, Initial residual = 0.0008525, Final residual = 5.94399e-07, No Iterations 64
diagonal:  Solving for rho, Initial residual = 0, Final residual = 0, No Iterations 0
time step continuity errors : sum local = 4.10029e-09, global = -1.15006e-12, cumulative = 9.80373e-10
PIMPLE: Iteration 3
smoothSolver:  Solving for Ux, Initial residual = 2.93472e-06, Final residual = 4.22359e-07, No Iterations 2
smoothSolver:  Solving for Uy, Initial residual = 6.72581e-05, Final residual = 6.70203e-07, No Iterations 5
smoothSolver:  Solving for e, Initial residual = 1.69271e-06, Final residual = 3.79946e-07, No Iterations 1
DICPCG:  Solving for p, Initial residual = 0.000502338, Final residual = 8.58377e-07, No Iterations 63
diagonal:  Solving for rho, Initial residual = 0, Final residual = 0, No Iterations 0
time step continuity errors : sum local = 5.9237e-09, global = -6.57018e-12, cumulative = 9.73802e-10
smoothSolver:  Solving for k, Initial residual = 0.000109247, Final residual = 6.52023e-07, No Iterations 6
bounding k, min: -0.00770333 max: 8.20617 average: 1.13187
ExecutionTime = 8.19 s  ClockTime = 9 s

Courant Number mean: 16.1053 max: 21.3665
Time = 0.49

PIMPLE: Iteration 1
diagonal:  Solving for rho, Initial residual = 0, Final residual = 0, No Iterations 0
smoothSolver:  Solving for Ux, Initial residual = 5.00169e-06, Final residual = 6.40578e-07, No Iterations 2
smoothSolver:  Solving for Uy, Initial residual = 0.000104159, Final residual = 5.7735e-07, No Iterations 6
smoothSolver:  Solving for e, Initial residual = 2.01627e-06, Final residual = 6.53924e-07, No Iterations 1
DICPCG:  Solving for p, Initial residual = 0.00146499, Final residual = 7.18617e-07, No Iterations 52
diagonal:  Solving for rho, Initial residual = 0, Final residual = 0, No Iterations 0
time step continuity errors : sum local = 4.9568e-09, global = 1.00332e-09, cumulative = 1.97712e-09
PIMPLE: Iteration 2
smoothSolver:  Solving for Ux, Initial residual = 3.73063e-06, Final residual = 5.76577e-07, No Iterations 2
smoothSolver:  Solving for Uy, Initial residual = 8.70247e-05, Final residual = 7.4403e-07, No Iterations 5
smoothSolver:  Solving for e, Initial residual = 1.66348e-06, Final residual = 4.63824e-07, No Iterations 1
DICPCG:  Solving for p, Initial residual = 0.000650797, Final residual = 9.67851e-07, No Iterations 63
diagonal:  Solving for rho, Initial residual = 0, Final residual = 0, No Iterations 0
time step continuity errors : sum local = 6.67347e-09, global = -5.2657e-12, cumulative = 1.97186e-09
PIMPLE: Iteration 3
smoothSolver:  Solving for Ux, Initial residual = 2.70401e-06, Final residual = 4.17479e-07, No Iterations 2
smoothSolver:  Solving for Uy, Initial residual = 6.0916e-05, Final residual = 5.59963e-07, No Iterations 5
smoothSolver:  Solving for e, Initial residual = 1.36763e-06, Final residual = 3.33924e-07, No Iterations 1
DICPCG:  Solving for p, Initial residual = 0.000383308, Final residual = 6.17448e-07, No Iterations 62
diagonal:  Solving for rho, Initial residual = 0, Final residual = 0, No Iterations 0
time step continuity errors : sum local = 4.25665e-09, global = -3.94982e-12, cumulative = 1.96791e-09
smoothSolver:  Solving for k, Initial residual = 0.000114318, Final residual = 3.56557e-07, No Iterations 4
bounding k, min: -2.10968e-05 max: 8.20674 average: 1.13187
ExecutionTime = 8.26 s  ClockTime = 9 s

Courant Number mean: 16.1053 max: 21.3664
Time = 0.495

PIMPLE: Iteration 1
diagonal:  Solving for rho, Initial residual = 0, Final residual = 0, No Iterations 0
smoothSolver:  Solving for Ux, Initial residual = 4.22059e-06, Final residual = 5.66978e-07, No Iterations 2
smoothSolver:  Solving for Uy, Initial residual = 8.33924e-05, Final residual = 8.24636e-07, No Iterations 5
smoothSolver:  Solving for e, Initial residual = 1.90864e-06, Final residual = 6.01164e-07, No Iterations 1
DICPCG:  Solving for p, Initial residual = 0.000851797, Final residual = 9.35782e-07, No Iterations 41
diagonal:  Solving for rho, Initial residual = 0, Final residual = 0, No Iterations 0
time step continuity errors : sum local = 6.45273e-09, global = 1.06338e-09, cumulative = 3.03129e-09
PIMPLE: Iteration 2
smoothSolver:  Solving for Ux, Initial residual = 3.07726e-06, Final residual = 4.86304e-07, No Iterations 2
smoothSolver:  Solving for Uy, Initial residual = 6.96776e-05, Final residual = 6.91089e-07, No Iterations 5
smoothSolver:  Solving for e, Initial residual = 1.35355e-06, Final residual = 3.84628e-07, No Iterations 1
DICPCG:  Solving for p, Initial residual = 0.000381595, Final residual = 8.23111e-07, No Iterations 62
diagonal:  Solving for rho, Initial residual = 0, Final residual = 0, No Iterations 0
time step continuity errors : sum local = 5.67724e-09, global = 4.82982e-12, cumulative = 3.03612e-09
PIMPLE: Iteration 3
smoothSolver:  Solving for Ux, Initial residual = 2.44877e-06, Final residual = 9.71608e-07, No Iterations 1
smoothSolver:  Solving for Uy, Initial residual = 5.0976e-05, Final residual = 4.90641e-07, No Iterations 5
smoothSolver:  Solving for e, Initial residual = 1.07807e-06, Final residual = 2.9117e-07, No Iterations 1
DICPCG:  Solving for p, Initial residual = 0.000218745, Final residual = 6.32303e-07, No Iterations 61
diagonal:  Solving for rho, Initial residual = 0, Final residual = 0, No Iterations 0
time step continuity errors : sum local = 4.36097e-09, global = -1.04337e-11, cumulative = 3.02569e-09
smoothSolver:  Solving for k, Initial residual = 8.86208e-05, Final residual = 7.39942e-07, No Iterations 4
bounding k, min: -0.0025393 max: 8.20684 average: 1.13183
ExecutionTime = 8.33 s  ClockTime = 9 s

Courant Number mean: 16.1053 max: 21.3663
Time = 0.5

PIMPLE: Iteration 1
diagonal:  Solving for rho, Initial residual = 0, Final residual = 0, No Iterations 0
smoothSolver:  Solving for Ux, Initial residual = 4.37436e-06, Final residual = 7.99049e-07, No Iterations 2
smoothSolver:  Solving for Uy, Initial residual = 8.585e-05, Final residual = 6.66764e-07, No Iterations 6
smoothSolver:  Solving for e, Initial residual = 1.6561e-06, Final residual = 4.86706e-07, No Iterations 1
DICPCG:  Solving for p, Initial residual = 0.00138625, Final residual = 7.27489e-07, No Iterations 55
diagonal:  Solving for rho, Initial residual = 0, Final residual = 0, No Iterations 0
time step continuity errors : sum local = 5.01566e-09, global = -7.70367e-10, cumulative = 2.25532e-09
PIMPLE: Iteration 2
smoothSolver:  Solving for Ux, Initial residual = 4.14601e-06, Final residual = 6.57221e-07, No Iterations 2
smoothSolver:  Solving for Uy, Initial residual = 9.4358e-05, Final residual = 4.28032e-07, No Iterations 6
smoothSolver:  Solving for e, Initial residual = 1.54115e-06, Final residual = 5.08925e-07, No Iterations 1
DICPCG:  Solving for p, Initial residual = 0.000669917, Final residual = 6.7761e-07, No Iterations 54
diagonal:  Solving for rho, Initial residual = 0, Final residual = 0, No Iterations 0
time step continuity errors : sum local = 4.66857e-09, global = 2.14059e-10, cumulative = 2.46938e-09
PIMPLE: Iteration 3
smoothSolver:  Solving for Ux, Initial residual = 2.71144e-06, Final residual = 4.33796e-07, No Iterations 2
smoothSolver:  Solving for Uy, Initial residual = 5.72292e-05, Final residual = 6.38938e-07, No Iterations 5
smoothSolver:  Solving for e, Initial residual = 1.3862e-06, Final residual = 3.47776e-07, No Iterations 1
DICPCG:  Solving for p, Initial residual = 0.000425485, Final residual = 7.83685e-07, No Iterations 55
diagonal:  Solving for rho, Initial residual = 0, Final residual = 0, No Iterations 0
time step continuity errors : sum local = 5.39787e-09, global = 5.79328e-11, cumulative = 2.52731e-09
smoothSolver:  Solving for k, Initial residual = 0.000124071, Final residual = 5.65233e-07, No Iterations 4
bounding k, min: -0.00238722 max: 8.20743 average: 1.13182
ExecutionTime = 8.53 s  ClockTime = 9 s

End

