/*---------------------------------------------------------------------------*\
  =========                 |
  \\      /  F ield         | OpenFOAM: The Open Source CFD Toolbox
   \\    /   O peration     | Website:  https://openfoam.org
    \\  /    A nd           | Version:  7
     \\/     M anipulation  |
\*---------------------------------------------------------------------------*/
Build  : 7-49b2b3b8b082
Exec   : checkMesh
Date   : Mar 29 2023
Time   : 12:19:04
Host   : "c469-073.stampede2.tacc.utexas.edu"
PID    : 227559
I/O    : uncollated
Case   : /home1/08376/lew2547/seniordesign/CooliestModel/src/CFD/heatedplate2
nProcs : 1
sigFpe : Enabling floating point exception trapping (FOAM_SIGFPE).
fileModificationChecking : Monitoring run-time modified files using timeStampMaster (fileModificationSkew 10)
allowSystemOperations : Allowing user-supplied system call operations

// * * * * * * * * * * * * * * * * * * * * * * * * * * * * * * * * * * * * * //
Create time

Create polyMesh for time = 0

Time = 0

Mesh stats
    points:           3362
    internal points:  0
    faces:            6480
    internal faces:   3120
    cells:            1600
    faces per cell:   6
    boundary patches: 5
    point zones:      0
    face zones:       0
    cell zones:       0

Overall number of cells of each type:
    hexahedra:     1600
    prisms:        0
    wedges:        0
    pyramids:      0
    tet wedges:    0
    tetrahedra:    0
    polyhedra:     0

Checking topology...
    Boundary definition OK.
    Cell to face addressing OK.
    Point usage OK.
    Upper triangular ordering OK.
    Face vertices OK.
    Number of regions: 1 (OK).

Checking patch topology for multiply connected surfaces...
    Patch               Faces    Points   Surface topology                  
    upperWall           40       82       ok (non-closed singly connected)  
    lowerWall           40       82       ok (non-closed singly connected)  
    inlet               40       82       ok (non-closed singly connected)  
    outlet              40       82       ok (non-closed singly connected)  
    frontAndBack        3200     3362     ok (non-closed singly connected)  

Checking geometry...
    Overall domain bounding box (0 0 -0.0001) (0.001 0.001 0.0001)
    Mesh has 2 geometric (non-empty/wedge) directions (1 1 0)
    Mesh has 2 solution (non-empty) directions (1 1 0)
    All edges aligned with or perpendicular to non-empty directions.
    Boundary openness (2.95422e-18 -2.95422e-18 8.60416e-18) OK.
    Max cell openness = 1.65436e-16 OK.
    Max aspect ratio = 1 OK.
    Minimum face area = 6.25e-10. Maximum face area = 5e-09.  Face area magnitudes OK.
    Min volume = 1.25e-13. Max volume = 1.25e-13.  Total volume = 2e-10.  Cell volumes OK.
    Mesh non-orthogonality Max: 0 average: 0
    Non-orthogonality check OK.
    Face pyramids OK.
    Max skewness = 3.3727e-14 OK.
    Coupled point location match (average 0) OK.

Mesh OK.

End

