/*---------------------------------------------------------------------------*\
  =========                 |
  \\      /  F ield         | OpenFOAM: The Open Source CFD Toolbox
   \\    /   O peration     | Website:  https://openfoam.org
    \\  /    A nd           | Version:  7
     \\/     M anipulation  |
\*---------------------------------------------------------------------------*/
Build  : 7-49b2b3b8b082
Exec   : checkMesh
Date   : Apr 14 2023
Time   : 10:01:54
Host   : "c406-053.stampede2.tacc.utexas.edu"
PID    : 109510
I/O    : uncollated
Case   : /home1/07645/eesha_n/SeniorDesign/CooliestModel/src/CFD/ConvergenceStudy/pipe_validation_6
nProcs : 1
sigFpe : Enabling floating point exception trapping (FOAM_SIGFPE).
fileModificationChecking : Monitoring run-time modified files using timeStampMaster (fileModificationSkew 10)
allowSystemOperations : Allowing user-supplied system call operations

// * * * * * * * * * * * * * * * * * * * * * * * * * * * * * * * * * * * * * //
Create time

Create polyMesh for time = 0

Time = 0

Mesh stats
    points:           11466
    internal points:  0
    faces:            21572
    internal faces:   10108
    cells:            5280
    faces per cell:   6
    boundary patches: 6
    point zones:      0
    face zones:       0
    cell zones:       0

Overall number of cells of each type:
    hexahedra:     5280
    prisms:        0
    wedges:        0
    pyramids:      0
    tet wedges:    0
    tetrahedra:    0
    polyhedra:     0

Checking topology...
    Boundary definition OK.
    Cell to face addressing OK.
    Point usage OK.
    Upper triangular ordering OK.
    Face vertices OK.
    Number of regions: 1 (OK).

Checking patch topology for multiply connected surfaces...
    Patch               Faces    Points   Surface topology                  
    upperWall           440      882      ok (non-closed singly connected)  
    lowerWall           80       162      ok (non-closed singly connected)  
    heatedWall          360      722      ok (non-closed singly connected)  
    inlet               12       26       ok (non-closed singly connected)  
    outlet              12       26       ok (non-closed singly connected)  
    frontAndBack        10560    11466    ok (non-closed singly connected)  

Checking geometry...
    Overall domain bounding box (0 0 -0.15) (19.2 0.2 0)
    Mesh has 2 geometric (non-empty/wedge) directions (1 1 0)
    Mesh has 2 solution (non-empty) directions (1 1 0)
    All edges aligned with or perpendicular to non-empty directions.
    Boundary openness (3.85494e-19 1.14344e-15 1.80138e-17) OK.
    Max cell openness = 1.0842e-16 OK.
    Max aspect ratio = 3 OK.
    Minimum face area = 0.00025. Maximum face area = 0.0075.  Face area magnitudes OK.
    Min volume = 3.75e-05. Max volume = 0.000125.  Total volume = 0.576.  Cell volumes OK.
    Mesh non-orthogonality Max: 0 average: 0
    Non-orthogonality check OK.
    Face pyramids OK.
    Max skewness = 3.55271e-13 OK.
    Coupled point location match (average 0) OK.

Mesh OK.

End

