/*---------------------------------------------------------------------------*\
  =========                 |
  \\      /  F ield         | OpenFOAM: The Open Source CFD Toolbox
   \\    /   O peration     | Website:  https://openfoam.org
    \\  /    A nd           | Version:  7
     \\/     M anipulation  |
\*---------------------------------------------------------------------------*/
Build  : 7-49b2b3b8b082
Exec   : rhoPimpleFoam
Date   : Mar 23 2023
Time   : 13:29:41
Host   : "c411-063.stampede2.tacc.utexas.edu"
PID    : 142762
I/O    : uncollated
Case   : /home1/08376/lew2547/CooliestModel/src/CFD/LES/pitzDaily
nProcs : 1
sigFpe : Enabling floating point exception trapping (FOAM_SIGFPE).
fileModificationChecking : Monitoring run-time modified files using timeStampMaster (fileModificationSkew 10)
allowSystemOperations : Allowing user-supplied system call operations

// * * * * * * * * * * * * * * * * * * * * * * * * * * * * * * * * * * * * * //
Create time

Create mesh for time = 0


PIMPLE: No convergence criteria found


PIMPLE: No corrector convergence criteria found
        Calculations will do 3 corrections


PIMPLE: Operating solver in transient mode with 3 outer correctors


Reading thermophysical properties

Selecting thermodynamics package 
{
    type            hePsiThermo;
    mixture         pureMixture;
    transport       const;
    thermo          eConst;
    equationOfState perfectGas;
    specie          specie;
    energy          sensibleInternalEnergy;
}

Reading field U

Reading/calculating face flux field phi

pressureControl
    pMax 200000
    pMin 50000

Creating turbulence model

Selecting turbulence model type LES
Selecting LES turbulence model kEqn
Selecting LES delta type cubeRootVol
--> FOAM Warning : 
    From function void Foam::LESModels::cubeRootVolDelta::calcDelta()
    in file LES/LESdeltas/cubeRootVolDelta/cubeRootVolDelta.C at line 55
    Case is 2D, LES is not strictly applicable

bounding k, min: 0 max: 2e-05 average: 0
LES
{
    LESModel        kEqn;
    turbulence      on;
    printCoeffs     on;
    delta           cubeRootVol;
    cubeRootVolCoeffs
    {
        deltaCoeff      1;
    }
    PrandtlCoeffs
    {
        delta           cubeRootVol;
        cubeRootVolCoeffs
        {
            deltaCoeff      1;
        }
        smoothCoeffs
        {
            delta           cubeRootVol;
            cubeRootVolCoeffs
            {
                deltaCoeff      1;
            }
            maxDeltaRatio   1.1;
        }
        Cdelta          0.158;
    }
    vanDriestCoeffs
    {
        delta           cubeRootVol;
        cubeRootVolCoeffs
        {
            deltaCoeff      1;
        }
        smoothCoeffs
        {
            delta           cubeRootVol;
            cubeRootVolCoeffs
            {
                deltaCoeff      1;
            }
            maxDeltaRatio   1.1;
        }
        Aplus           26;
        Cdelta          0.158;
    }
    smoothCoeffs
    {
        delta           cubeRootVol;
        cubeRootVolCoeffs
        {
            deltaCoeff      1;
        }
        maxDeltaRatio   1.1;
    }
    Ce              1.048;
    Ck              0.094;
}

Creating field dpdt

Creating field kinetic energy K

No MRF models present

No finite volume options present
Courant Number mean: 8.74894e-05 max: 0.0315889

Starting time loop

fieldAverage fieldAverage1:
    Starting averaging at time 0

Courant Number mean: 8.74894e-05 max: 0.0315889
Time = 1e-05

PIMPLE: Iteration 1
diagonal:  Solving for rho, Initial residual = 0, Final residual = 0, No Iterations 0
smoothSolver:  Solving for Ux, Initial residual = 1, Final residual = 1.6689e-07, No Iterations 1
smoothSolver:  Solving for Uy, Initial residual = 1, Final residual = 1.41494e-07, No Iterations 1
smoothSolver:  Solving for e, Initial residual = 1, Final residual = 6.64336e-07, No Iterations 1
DICPCG:  Solving for p, Initial residual = 1, Final residual = 9.07603e-07, No Iterations 24
diagonal:  Solving for rho, Initial residual = 0, Final residual = 0, No Iterations 0
time step continuity errors : sum local = 1.64854e-10, global = 1.98329e-11, cumulative = 1.98329e-11
PIMPLE: Iteration 2
smoothSolver:  Solving for Ux, Initial residual = 0.0954099, Final residual = 1.14779e-05, No Iterations 1
smoothSolver:  Solving for Uy, Initial residual = 0.145051, Final residual = 8.47432e-06, No Iterations 1
smoothSolver:  Solving for e, Initial residual = 0.439213, Final residual = 2.93668e-05, No Iterations 1
DICPCG:  Solving for p, Initial residual = 0.053869, Final residual = 9.22446e-07, No Iterations 13
diagonal:  Solving for rho, Initial residual = 0, Final residual = 0, No Iterations 0
time step continuity errors : sum local = 6.24054e-10, global = 2.13384e-10, cumulative = 2.33217e-10
PIMPLE: Iteration 3
smoothSolver:  Solving for Ux, Initial residual = 0.00121852, Final residual = 2.36667e-08, No Iterations 1
smoothSolver:  Solving for Uy, Initial residual = 0.00275716, Final residual = 1.00835e-07, No Iterations 1
smoothSolver:  Solving for e, Initial residual = 0.208571, Final residual = 4.42097e-10, No Iterations 2
DICPCG:  Solving for p, Initial residual = 0.0580117, Final residual = 8.71067e-07, No Iterations 14
diagonal:  Solving for rho, Initial residual = 0, Final residual = 0, No Iterations 0
time step continuity errors : sum local = 5.51064e-10, global = -8.11673e-11, cumulative = 1.52049e-10
smoothSolver:  Solving for k, Initial residual = 0.8125, Final residual = 1.05488e-09, No Iterations 2
bounding k, min: 0 max: 0.000102715 average: 1.28881e-07
ExecutionTime = 1.05 s  ClockTime = 3 s

    Reading/initialising field UMean
    Reading/initialising field pMean
    Reading/initialising field UPrime2Mean
    Reading/initialising field pPrime2Mean
fieldAverage fieldAverage1 write:
    Calculating averages

Courant Number mean: 0.000293428 max: 0.049955
Time = 2e-05

PIMPLE: Iteration 1
diagonal:  Solving for rho, Initial residual = 0, Final residual = 0, No Iterations 0
smoothSolver:  Solving for Ux, Initial residual = 0.258198, Final residual = 1.29012e-05, No Iterations 1
smoothSolver:  Solving for Uy, Initial residual = 0.329709, Final residual = 9.60807e-06, No Iterations 1
smoothSolver:  Solving for e, Initial residual = 0.256736, Final residual = 8.61658e-06, No Iterations 1
DICPCG:  Solving for p, Initial residual = 0.26031, Final residual = 6.68167e-07, No Iterations 18
diagonal:  Solving for rho, Initial residual = 0, Final residual = 0, No Iterations 0
time step continuity errors : sum local = 5.67978e-10, global = 6.29444e-11, cumulative = 2.14994e-10
PIMPLE: Iteration 2
smoothSolver:  Solving for Ux, Initial residual = 0.00147111, Final residual = 2.89508e-07, No Iterations 1
smoothSolver:  Solving for Uy, Initial residual = 0.00631289, Final residual = 1.91688e-06, No Iterations 1
smoothSolver:  Solving for e, Initial residual = 0.11717, Final residual = 7.6634e-06, No Iterations 1
DICPCG:  Solving for p, Initial residual = 0.0334423, Final residual = 8.52784e-07, No Iterations 15
diagonal:  Solving for rho, Initial residual = 0, Final residual = 0, No Iterations 0
time step continuity errors : sum local = 1.26803e-09, global = 1.40535e-10, cumulative = 3.55528e-10
PIMPLE: Iteration 3
smoothSolver:  Solving for Ux, Initial residual = 0.000528666, Final residual = 7.17514e-08, No Iterations 1
smoothSolver:  Solving for Uy, Initial residual = 0.00195192, Final residual = 5.06223e-07, No Iterations 1
smoothSolver:  Solving for e, Initial residual = 0.0242031, Final residual = 7.48383e-10, No Iterations 2
DICPCG:  Solving for p, Initial residual = 0.0067279, Final residual = 7.03926e-07, No Iterations 12
diagonal:  Solving for rho, Initial residual = 0, Final residual = 0, No Iterations 0
time step continuity errors : sum local = 1.05681e-09, global = 9.08599e-11, cumulative = 4.46388e-10
smoothSolver:  Solving for k, Initial residual = 0.288562, Final residual = 3.251e-10, No Iterations 2
bounding k, min: 0 max: 0.00145777 average: 4.63582e-07
ExecutionTime = 1.37 s  ClockTime = 3 s

fieldAverage fieldAverage1 write:
    Calculating averages

Courant Number mean: 0.000662566 max: 0.0635416
Time = 3e-05

PIMPLE: Iteration 1
diagonal:  Solving for rho, Initial residual = 0, Final residual = 0, No Iterations 0
smoothSolver:  Solving for Ux, Initial residual = 0.159551, Final residual = 2.54475e-05, No Iterations 1
smoothSolver:  Solving for Uy, Initial residual = 0.287133, Final residual = 3.43774e-05, No Iterations 1
smoothSolver:  Solving for e, Initial residual = 0.137407, Final residual = 2.31379e-05, No Iterations 1
DICPCG:  Solving for p, Initial residual = 0.167181, Final residual = 7.68652e-07, No Iterations 18
diagonal:  Solving for rho, Initial residual = 0, Final residual = 0, No Iterations 0
time step continuity errors : sum local = 1.33458e-09, global = 1.4534e-10, cumulative = 5.91729e-10
PIMPLE: Iteration 2
smoothSolver:  Solving for Ux, Initial residual = 0.000779691, Final residual = 2.05743e-07, No Iterations 1
smoothSolver:  Solving for Uy, Initial residual = 0.00202098, Final residual = 7.23697e-07, No Iterations 1
smoothSolver:  Solving for e, Initial residual = 0.0581484, Final residual = 1.35152e-05, No Iterations 1
DICPCG:  Solving for p, Initial residual = 0.0172926, Final residual = 6.01314e-07, No Iterations 15
diagonal:  Solving for rho, Initial residual = 0, Final residual = 0, No Iterations 0
time step continuity errors : sum local = 1.4828e-09, global = 9.78354e-11, cumulative = 6.89564e-10
PIMPLE: Iteration 3
smoothSolver:  Solving for Ux, Initial residual = 0.000167689, Final residual = 5.09086e-08, No Iterations 1
smoothSolver:  Solving for Uy, Initial residual = 0.000784408, Final residual = 2.80908e-07, No Iterations 1
smoothSolver:  Solving for e, Initial residual = 0.00604122, Final residual = 7.98864e-10, No Iterations 2
DICPCG:  Solving for p, Initial residual = 0.00174559, Final residual = 7.94986e-07, No Iterations 11
diagonal:  Solving for rho, Initial residual = 0, Final residual = 0, No Iterations 0
time step continuity errors : sum local = 1.97122e-09, global = -9.43073e-12, cumulative = 6.80133e-10
smoothSolver:  Solving for k, Initial residual = 0.439324, Final residual = 1.54029e-08, No Iterations 2
bounding k, min: 0 max: 0.0119327 average: 3.31628e-06
ExecutionTime = 1.64 s  ClockTime = 3 s

fieldAverage fieldAverage1 write:
    Calculating averages

Courant Number mean: 0.00113447 max: 0.0690497
Time = 4e-05

PIMPLE: Iteration 1
diagonal:  Solving for rho, Initial residual = 0, Final residual = 0, No Iterations 0
smoothSolver:  Solving for Ux, Initial residual = 0.102664, Final residual = 2.40263e-05, No Iterations 1
smoothSolver:  Solving for Uy, Initial residual = 0.144805, Final residual = 1.62734e-05, No Iterations 1
smoothSolver:  Solving for e, Initial residual = 0.102373, Final residual = 2.31508e-05, No Iterations 1
DICPCG:  Solving for p, Initial residual = 0.107887, Final residual = 6.52742e-07, No Iterations 18
diagonal:  Solving for rho, Initial residual = 0, Final residual = 0, No Iterations 0
time step continuity errors : sum local = 1.773e-09, global = 2.00103e-10, cumulative = 8.80236e-10
PIMPLE: Iteration 2
smoothSolver:  Solving for Ux, Initial residual = 0.000654315, Final residual = 2.15204e-07, No Iterations 1
smoothSolver:  Solving for Uy, Initial residual = 0.00080834, Final residual = 2.64664e-07, No Iterations 1
smoothSolver:  Solving for e, Initial residual = 0.0397318, Final residual = 1.26752e-05, No Iterations 1
DICPCG:  Solving for p, Initial residual = 0.0116039, Final residual = 6.56915e-07, No Iterations 15
diagonal:  Solving for rho, Initial residual = 0, Final residual = 0, No Iterations 0
time step continuity errors : sum local = 2.31046e-09, global = 5.48846e-11, cumulative = 9.35121e-10
PIMPLE: Iteration 3
smoothSolver:  Solving for Ux, Initial residual = 0.000137274, Final residual = 5.16107e-08, No Iterations 1
smoothSolver:  Solving for Uy, Initial residual = 0.000204958, Final residual = 7.16091e-08, No Iterations 1
smoothSolver:  Solving for e, Initial residual = 0.00515918, Final residual = 7.76433e-10, No Iterations 2
DICPCG:  Solving for p, Initial residual = 0.00144403, Final residual = 6.00649e-07, No Iterations 11
diagonal:  Solving for rho, Initial residual = 0, Final residual = 0, No Iterations 0
time step continuity errors : sum local = 2.12207e-09, global = -2.10284e-10, cumulative = 7.24838e-10
smoothSolver:  Solving for k, Initial residual = 0.414377, Final residual = 6.36082e-08, No Iterations 2
bounding k, min: 0 max: 0.0734863 average: 1.89245e-05
ExecutionTime = 1.9 s  ClockTime = 4 s

fieldAverage fieldAverage1 write:
    Calculating averages

Courant Number mean: 0.00169215 max: 0.0747483
Time = 5e-05

PIMPLE: Iteration 1
diagonal:  Solving for rho, Initial residual = 0, Final residual = 0, No Iterations 0
smoothSolver:  Solving for Ux, Initial residual = 0.0736633, Final residual = 2.12227e-05, No Iterations 1
smoothSolver:  Solving for Uy, Initial residual = 0.112029, Final residual = 6.68545e-06, No Iterations 1
smoothSolver:  Solving for e, Initial residual = 0.0775982, Final residual = 2.13279e-05, No Iterations 1
DICPCG:  Solving for p, Initial residual = 0.0792184, Final residual = 6.84802e-07, No Iterations 18
diagonal:  Solving for rho, Initial residual = 0, Final residual = 0, No Iterations 0
time step continuity errors : sum local = 2.57856e-09, global = 2.87807e-10, cumulative = 1.01264e-09
PIMPLE: Iteration 2
smoothSolver:  Solving for Ux, Initial residual = 0.000468183, Final residual = 2.00867e-07, No Iterations 1
smoothSolver:  Solving for Uy, Initial residual = 0.000497019, Final residual = 1.25411e-07, No Iterations 1
smoothSolver:  Solving for e, Initial residual = 0.0293625, Final residual = 1.13622e-05, No Iterations 1
DICPCG:  Solving for p, Initial residual = 0.00863195, Final residual = 9.64701e-07, No Iterations 14
diagonal:  Solving for rho, Initial residual = 0, Final residual = 0, No Iterations 0
time step continuity errors : sum local = 4.47999e-09, global = 9.34448e-11, cumulative = 1.10609e-09
PIMPLE: Iteration 3
smoothSolver:  Solving for Ux, Initial residual = 0.000107083, Final residual = 5.06165e-08, No Iterations 1
smoothSolver:  Solving for Uy, Initial residual = 7.78793e-05, Final residual = 1.90717e-08, No Iterations 1
smoothSolver:  Solving for e, Initial residual = 0.00314548, Final residual = 7.32544e-10, No Iterations 2
DICPCG:  Solving for p, Initial residual = 0.00089862, Final residual = 5.81623e-07, No Iterations 10
diagonal:  Solving for rho, Initial residual = 0, Final residual = 0, No Iterations 0
time step continuity errors : sum local = 2.71246e-09, global = 9.698e-11, cumulative = 1.20307e-09
smoothSolver:  Solving for k, Initial residual = 0.28667, Final residual = 5.78472e-08, No Iterations 2
bounding k, min: 0 max: 0.225865 average: 6.86506e-05
ExecutionTime = 2.18 s  ClockTime = 4 s

fieldAverage fieldAverage1 write:
    Calculating averages

Courant Number mean: 0.00235751 max: 0.0817513
Time = 6e-05

PIMPLE: Iteration 1
diagonal:  Solving for rho, Initial residual = 0, Final residual = 0, No Iterations 0
smoothSolver:  Solving for Ux, Initial residual = 0.0596424, Final residual = 2.12039e-05, No Iterations 1
smoothSolver:  Solving for Uy, Initial residual = 0.10073, Final residual = 6.47727e-06, No Iterations 1
smoothSolver:  Solving for e, Initial residual = 0.0620907, Final residual = 2.15695e-05, No Iterations 1
DICPCG:  Solving for p, Initial residual = 0.062802, Final residual = 6.38002e-07, No Iterations 18
diagonal:  Solving for rho, Initial residual = 0, Final residual = 0, No Iterations 0
time step continuity errors : sum local = 3.1189e-09, global = 3.88825e-10, cumulative = 1.59189e-09
PIMPLE: Iteration 2
smoothSolver:  Solving for Ux, Initial residual = 0.000383485, Final residual = 2.0515e-07, No Iterations 1
smoothSolver:  Solving for Uy, Initial residual = 0.00048607, Final residual = 2.16215e-07, No Iterations 1
smoothSolver:  Solving for e, Initial residual = 0.0223066, Final residual = 1.08786e-05, No Iterations 1
DICPCG:  Solving for p, Initial residual = 0.00660552, Final residual = 7.60142e-07, No Iterations 14
diagonal:  Solving for rho, Initial residual = 0, Final residual = 0, No Iterations 0
time step continuity errors : sum local = 4.45461e-09, global = 2.3339e-10, cumulative = 1.82528e-09
PIMPLE: Iteration 3
smoothSolver:  Solving for Ux, Initial residual = 7.05827e-05, Final residual = 4.2783e-08, No Iterations 1
smoothSolver:  Solving for Uy, Initial residual = 5.5512e-05, Final residual = 1.63186e-08, No Iterations 1
smoothSolver:  Solving for e, Initial residual = 0.00208044, Final residual = 7.1605e-10, No Iterations 2
DICPCG:  Solving for p, Initial residual = 0.000603781, Final residual = 9.49237e-07, No Iterations 9
diagonal:  Solving for rho, Initial residual = 0, Final residual = 0, No Iterations 0
time step continuity errors : sum local = 5.58449e-09, global = 2.4143e-09, cumulative = 4.23958e-09
smoothSolver:  Solving for k, Initial residual = 0.200367, Final residual = 5.3976e-08, No Iterations 2
bounding k, min: 0 max: 0.491651 average: 0.000183049
ExecutionTime = 2.46 s  ClockTime = 4 s

fieldAverage fieldAverage1 write:
    Calculating averages

Courant Number mean: 0.00317684 max: 0.183813
Time = 7e-05

PIMPLE: Iteration 1
diagonal:  Solving for rho, Initial residual = 0, Final residual = 0, No Iterations 0
smoothSolver:  Solving for Ux, Initial residual = 0.0496531, Final residual = 2.23498e-05, No Iterations 1
smoothSolver:  Solving for Uy, Initial residual = 0.088977, Final residual = 1.0958e-05, No Iterations 1
smoothSolver:  Solving for e, Initial residual = 0.0508947, Final residual = 2.24586e-05, No Iterations 1
DICPCG:  Solving for p, Initial residual = 0.051517, Final residual = 5.43429e-07, No Iterations 18
diagonal:  Solving for rho, Initial residual = 0, Final residual = 0, No Iterations 0
time step continuity errors : sum local = 3.31373e-09, global = 4.62324e-10, cumulative = 4.7019e-09
PIMPLE: Iteration 2
smoothSolver:  Solving for Ux, Initial residual = 0.000329984, Final residual = 2.53947e-07, No Iterations 1
smoothSolver:  Solving for Uy, Initial residual = 0.000569665, Final residual = 7.77844e-07, No Iterations 1
smoothSolver:  Solving for e, Initial residual = 0.0178633, Final residual = 1.09337e-05, No Iterations 1
DICPCG:  Solving for p, Initial residual = 0.00532031, Final residual = 9.73999e-07, No Iterations 13
diagonal:  Solving for rho, Initial residual = 0, Final residual = 0, No Iterations 0
time step continuity errors : sum local = 6.98393e-09, global = 4.92237e-11, cumulative = 4.75113e-09
PIMPLE: Iteration 3
smoothSolver:  Solving for Ux, Initial residual = 5.61139e-05, Final residual = 4.23577e-08, No Iterations 1
smoothSolver:  Solving for Uy, Initial residual = 4.19942e-05, Final residual = 3.06538e-08, No Iterations 1
smoothSolver:  Solving for e, Initial residual = 0.00151562, Final residual = 9.45344e-07, No Iterations 1
DICPCG:  Solving for p, Initial residual = 0.000440327, Final residual = 6.51362e-07, No Iterations 9
diagonal:  Solving for rho, Initial residual = 0, Final residual = 0, No Iterations 0
time step continuity errors : sum local = 4.68499e-09, global = 5.40144e-10, cumulative = 5.29127e-09
smoothSolver:  Solving for k, Initial residual = 0.147404, Final residual = 5.19384e-08, No Iterations 2
bounding k, min: 0 max: 0.880757 average: 0.000399075
ExecutionTime = 2.71 s  ClockTime = 4 s

fieldAverage fieldAverage1 write:
    Calculating averages

Courant Number mean: 0.00419577 max: 0.353781
Time = 8e-05

PIMPLE: Iteration 1
diagonal:  Solving for rho, Initial residual = 0, Final residual = 0, No Iterations 0
smoothSolver:  Solving for Ux, Initial residual = 0.0420414, Final residual = 2.57158e-05, No Iterations 1
smoothSolver:  Solving for Uy, Initial residual = 0.0798494, Final residual = 2.15985e-05, No Iterations 1
smoothSolver:  Solving for e, Initial residual = 0.0430132, Final residual = 2.50654e-05, No Iterations 1
DICPCG:  Solving for p, Initial residual = 0.0433288, Final residual = 7.21292e-07, No Iterations 17
diagonal:  Solving for rho, Initial residual = 0, Final residual = 0, No Iterations 0
time step continuity errors : sum local = 5.33354e-09, global = 3.7161e-10, cumulative = 5.66288e-09
PIMPLE: Iteration 2
smoothSolver:  Solving for Ux, Initial residual = 0.000295203, Final residual = 3.9302e-07, No Iterations 1
smoothSolver:  Solving for Uy, Initial residual = 0.00057096, Final residual = 1.77596e-06, No Iterations 1
smoothSolver:  Solving for e, Initial residual = 0.0149046, Final residual = 1.10226e-05, No Iterations 1
DICPCG:  Solving for p, Initial residual = 0.00449542, Final residual = 5.68641e-07, No Iterations 14
diagonal:  Solving for rho, Initial residual = 0, Final residual = 0, No Iterations 0
time step continuity errors : sum local = 4.8643e-09, global = -1.56571e-10, cumulative = 5.50631e-09
PIMPLE: Iteration 3
smoothSolver:  Solving for Ux, Initial residual = 4.69952e-05, Final residual = 5.11468e-08, No Iterations 1
smoothSolver:  Solving for Uy, Initial residual = 3.89433e-05, Final residual = 1.14547e-07, No Iterations 1
smoothSolver:  Solving for e, Initial residual = 0.00113355, Final residual = 9.10519e-07, No Iterations 1
DICPCG:  Solving for p, Initial residual = 0.00033456, Final residual = 5.84824e-07, No Iterations 9
diagonal:  Solving for rho, Initial residual = 0, Final residual = 0, No Iterations 0
time step continuity errors : sum local = 5.01232e-09, global = -8.35729e-10, cumulative = 4.67058e-09
smoothSolver:  Solving for k, Initial residual = 0.113886, Final residual = 6.28826e-08, No Iterations 2
bounding k, min: 0 max: 1.39103 average: 0.00076098
ExecutionTime = 3.01 s  ClockTime = 5 s

fieldAverage fieldAverage1 write:
    Calculating averages

Courant Number mean: 0.00543968 max: 0.56799
Time = 9e-05

PIMPLE: Iteration 1
diagonal:  Solving for rho, Initial residual = 0, Final residual = 0, No Iterations 0
smoothSolver:  Solving for Ux, Initial residual = 0.0363576, Final residual = 3.08795e-05, No Iterations 1
smoothSolver:  Solving for Uy, Initial residual = 0.0730989, Final residual = 3.47932e-05, No Iterations 1
smoothSolver:  Solving for e, Initial residual = 0.0372731, Final residual = 2.87664e-05, No Iterations 1
DICPCG:  Solving for p, Initial residual = 0.0378997, Final residual = 9.2145e-07, No Iterations 16
diagonal:  Solving for rho, Initial residual = 0, Final residual = 0, No Iterations 0
time step continuity errors : sum local = 8.06885e-09, global = -8.27141e-10, cumulative = 3.84344e-09
PIMPLE: Iteration 2
smoothSolver:  Solving for Ux, Initial residual = 0.000258123, Final residual = 4.97991e-07, No Iterations 1
smoothSolver:  Solving for Uy, Initial residual = 0.000478005, Final residual = 2.28859e-06, No Iterations 1
smoothSolver:  Solving for e, Initial residual = 0.0128394, Final residual = 1.18667e-05, No Iterations 1
DICPCG:  Solving for p, Initial residual = 0.00388472, Final residual = 7.75545e-07, No Iterations 13
diagonal:  Solving for rho, Initial residual = 0, Final residual = 0, No Iterations 0
time step continuity errors : sum local = 7.72502e-09, global = 1.44307e-09, cumulative = 5.28651e-09
PIMPLE: Iteration 3
smoothSolver:  Solving for Ux, Initial residual = 4.21085e-05, Final residual = 6.90169e-08, No Iterations 1
smoothSolver:  Solving for Uy, Initial residual = 4.02792e-05, Final residual = 2.0523e-07, No Iterations 1
smoothSolver:  Solving for e, Initial residual = 0.000877957, Final residual = 8.51298e-07, No Iterations 1
DICPCG:  Solving for p, Initial residual = 0.00026773, Final residual = 5.58179e-07, No Iterations 9
diagonal:  Solving for rho, Initial residual = 0, Final residual = 0, No Iterations 0
time step continuity errors : sum local = 5.56213e-09, global = -1.69169e-09, cumulative = 3.59482e-09
smoothSolver:  Solving for k, Initial residual = 0.0922129, Final residual = 1.94022e-07, No Iterations 2
bounding k, min: 0 max: 2.00933 average: 0.00133092
ExecutionTime = 3.26 s  ClockTime = 5 s

fieldAverage fieldAverage1 write:
    Calculating averages

Courant Number mean: 0.00689481 max: 0.781239
Time = 0.0001

PIMPLE: Iteration 1
diagonal:  Solving for rho, Initial residual = 0, Final residual = 0, No Iterations 0
smoothSolver:  Solving for Ux, Initial residual = 0.0317752, Final residual = 3.37696e-05, No Iterations 1
smoothSolver:  Solving for Uy, Initial residual = 0.0666778, Final residual = 4.37401e-05, No Iterations 1
smoothSolver:  Solving for e, Initial residual = 0.0338882, Final residual = 3.10767e-05, No Iterations 1
DICPCG:  Solving for p, Initial residual = 0.034646, Final residual = 9.21989e-07, No Iterations 16
diagonal:  Solving for rho, Initial residual = 0, Final residual = 0, No Iterations 0
time step continuity errors : sum local = 9.34138e-09, global = -9.23785e-10, cumulative = 2.67104e-09
PIMPLE: Iteration 2
smoothSolver:  Solving for Ux, Initial residual = 0.000226285, Final residual = 5.53486e-07, No Iterations 1
smoothSolver:  Solving for Uy, Initial residual = 0.0003503, Final residual = 1.66076e-06, No Iterations 1
smoothSolver:  Solving for e, Initial residual = 0.0112934, Final residual = 1.38367e-05, No Iterations 1
DICPCG:  Solving for p, Initial residual = 0.00340168, Final residual = 9.59927e-07, No Iterations 13
diagonal:  Solving for rho, Initial residual = 0, Final residual = 0, No Iterations 0
time step continuity errors : sum local = 1.08672e-08, global = -2.66766e-09, cumulative = 3.37522e-12
PIMPLE: Iteration 3
smoothSolver:  Solving for Ux, Initial residual = 3.6044e-05, Final residual = 7.26623e-08, No Iterations 1
smoothSolver:  Solving for Uy, Initial residual = 3.70851e-05, Final residual = 1.96227e-07, No Iterations 1
smoothSolver:  Solving for e, Initial residual = 0.000701581, Final residual = 8.72818e-07, No Iterations 1
DICPCG:  Solving for p, Initial residual = 0.000219537, Final residual = 7.97468e-07, No Iterations 8
diagonal:  Solving for rho, Initial residual = 0, Final residual = 0, No Iterations 0
time step continuity errors : sum local = 9.02071e-09, global = -2.65512e-09, cumulative = -2.65175e-09
smoothSolver:  Solving for k, Initial residual = 0.0775056, Final residual = 4.91644e-07, No Iterations 2
bounding k, min: 0 max: 2.71655 average: 0.00220091
ExecutionTime = 3.55 s  ClockTime = 5 s

fieldAverage fieldAverage1 write:
    Calculating averages

Courant Number mean: 0.0085106 max: 0.947185
Time = 0.00011

PIMPLE: Iteration 1
diagonal:  Solving for rho, Initial residual = 0, Final residual = 0, No Iterations 0
smoothSolver:  Solving for Ux, Initial residual = 0.0281515, Final residual = 3.05038e-05, No Iterations 1
smoothSolver:  Solving for Uy, Initial residual = 0.0604205, Final residual = 4.44188e-05, No Iterations 1
smoothSolver:  Solving for e, Initial residual = 0.0322973, Final residual = 2.9216e-05, No Iterations 1
DICPCG:  Solving for p, Initial residual = 0.032975, Final residual = 6.22102e-07, No Iterations 17
diagonal:  Solving for rho, Initial residual = 0, Final residual = 0, No Iterations 0
time step continuity errors : sum local = 7.12773e-09, global = 4.78778e-10, cumulative = -2.17297e-09
PIMPLE: Iteration 2
smoothSolver:  Solving for Ux, Initial residual = 0.000204811, Final residual = 5.92875e-07, No Iterations 1
smoothSolver:  Solving for Uy, Initial residual = 0.000257179, Final residual = 8.73141e-07, No Iterations 1
smoothSolver:  Solving for e, Initial residual = 0.0101587, Final residual = 1.42602e-05, No Iterations 1
DICPCG:  Solving for p, Initial residual = 0.00305404, Final residual = 9.1172e-07, No Iterations 13
diagonal:  Solving for rho, Initial residual = 0, Final residual = 0, No Iterations 0
time step continuity errors : sum local = 1.14697e-08, global = -2.36907e-09, cumulative = -4.54204e-09
PIMPLE: Iteration 3
smoothSolver:  Solving for Ux, Initial residual = 3.10497e-05, Final residual = 7.56535e-08, No Iterations 1
smoothSolver:  Solving for Uy, Initial residual = 2.86797e-05, Final residual = 1.37007e-07, No Iterations 1
smoothSolver:  Solving for e, Initial residual = 0.000568306, Final residual = 8.51403e-07, No Iterations 1
DICPCG:  Solving for p, Initial residual = 0.00017767, Final residual = 5.9308e-07, No Iterations 8
diagonal:  Solving for rho, Initial residual = 0, Final residual = 0, No Iterations 0
time step continuity errors : sum local = 7.45007e-09, global = -1.07075e-09, cumulative = -5.61279e-09
smoothSolver:  Solving for k, Initial residual = 0.0664113, Final residual = 9.59865e-07, No Iterations 2
bounding k, min: 0 max: 3.49119 average: 0.00348456
ExecutionTime = 3.81 s  ClockTime = 6 s

fieldAverage fieldAverage1 write:
    Calculating averages

Courant Number mean: 0.0102238 max: 1.04625
Time = 0.00012

PIMPLE: Iteration 1
diagonal:  Solving for rho, Initial residual = 0, Final residual = 0, No Iterations 0
smoothSolver:  Solving for Ux, Initial residual = 0.0256893, Final residual = 2.40477e-05, No Iterations 1
smoothSolver:  Solving for Uy, Initial residual = 0.0544073, Final residual = 4.14709e-05, No Iterations 1
smoothSolver:  Solving for e, Initial residual = 0.0315417, Final residual = 2.57308e-05, No Iterations 1
DICPCG:  Solving for p, Initial residual = 0.0319671, Final residual = 5.77925e-07, No Iterations 17
diagonal:  Solving for rho, Initial residual = 0, Final residual = 0, No Iterations 0
time step continuity errors : sum local = 7.33066e-09, global = 7.82339e-10, cumulative = -4.83045e-09
PIMPLE: Iteration 2
smoothSolver:  Solving for Ux, Initial residual = 0.000182999, Final residual = 4.81494e-07, No Iterations 1
smoothSolver:  Solving for Uy, Initial residual = 0.00020878, Final residual = 4.10101e-07, No Iterations 1
smoothSolver:  Solving for e, Initial residual = 0.00963632, Final residual = 1.27747e-05, No Iterations 1
DICPCG:  Solving for p, Initial residual = 0.00288998, Final residual = 7.3689e-07, No Iterations 13
diagonal:  Solving for rho, Initial residual = 0, Final residual = 0, No Iterations 0
time step continuity errors : sum local = 1.01049e-08, global = -1.1947e-09, cumulative = -6.02515e-09
PIMPLE: Iteration 3
smoothSolver:  Solving for Ux, Initial residual = 2.85929e-05, Final residual = 7.24848e-08, No Iterations 1
smoothSolver:  Solving for Uy, Initial residual = 2.17565e-05, Final residual = 1.08912e-07, No Iterations 1
smoothSolver:  Solving for e, Initial residual = 0.000494706, Final residual = 7.31609e-07, No Iterations 1
DICPCG:  Solving for p, Initial residual = 0.000152001, Final residual = 9.99481e-07, No Iterations 7
diagonal:  Solving for rho, Initial residual = 0, Final residual = 0, No Iterations 0
time step continuity errors : sum local = 1.36824e-08, global = -8.82251e-10, cumulative = -6.9074e-09
smoothSolver:  Solving for k, Initial residual = 0.0572437, Final residual = 1.75562e-08, No Iterations 3
bounding k, min: 0 max: 4.31455 average: 0.00529251
ExecutionTime = 4.1 s  ClockTime = 6 s

fieldAverage fieldAverage1 write:
    Calculating averages

Courant Number mean: 0.0119818 max: 1.09081
Time = 0.00013

PIMPLE: Iteration 1
diagonal:  Solving for rho, Initial residual = 0, Final residual = 0, No Iterations 0
smoothSolver:  Solving for Ux, Initial residual = 0.0241685, Final residual = 2.04799e-05, No Iterations 1
smoothSolver:  Solving for Uy, Initial residual = 0.0487286, Final residual = 3.65617e-05, No Iterations 1
smoothSolver:  Solving for e, Initial residual = 0.0312762, Final residual = 2.46305e-05, No Iterations 1
DICPCG:  Solving for p, Initial residual = 0.0315015, Final residual = 9.97423e-07, No Iterations 16
diagonal:  Solving for rho, Initial residual = 0, Final residual = 0, No Iterations 0
time step continuity errors : sum local = 1.37532e-08, global = 7.26401e-10, cumulative = -6.181e-09
PIMPLE: Iteration 2
smoothSolver:  Solving for Ux, Initial residual = 0.000157954, Final residual = 3.86699e-07, No Iterations 1
smoothSolver:  Solving for Uy, Initial residual = 0.000185911, Final residual = 2.58679e-07, No Iterations 1
smoothSolver:  Solving for e, Initial residual = 0.00924307, Final residual = 1.0752e-05, No Iterations 1
DICPCG:  Solving for p, Initial residual = 0.00276075, Final residual = 6.85156e-07, No Iterations 13
diagonal:  Solving for rho, Initial residual = 0, Final residual = 0, No Iterations 0
time step continuity errors : sum local = 1.00847e-08, global = -4.03034e-10, cumulative = -6.58404e-09
PIMPLE: Iteration 3
smoothSolver:  Solving for Ux, Initial residual = 2.65004e-05, Final residual = 5.89104e-08, No Iterations 1
smoothSolver:  Solving for Uy, Initial residual = 1.91648e-05, Final residual = 7.66103e-08, No Iterations 1
smoothSolver:  Solving for e, Initial residual = 0.000430722, Final residual = 6.58651e-07, No Iterations 1
DICPCG:  Solving for p, Initial residual = 0.000132358, Final residual = 6.53877e-07, No Iterations 8
diagonal:  Solving for rho, Initial residual = 0, Final residual = 0, No Iterations 0
time step continuity errors : sum local = 9.60912e-09, global = -1.10173e-09, cumulative = -7.68577e-09
smoothSolver:  Solving for k, Initial residual = 0.0494561, Final residual = 4.65602e-08, No Iterations 3
bounding k, min: 0 max: 5.49422 average: 0.00771424
ExecutionTime = 4.35 s  ClockTime = 6 s

fieldAverage fieldAverage1 write:
    Calculating averages

Courant Number mean: 0.0137534 max: 1.10712
Time = 0.00014

PIMPLE: Iteration 1
diagonal:  Solving for rho, Initial residual = 0, Final residual = 0, No Iterations 0
smoothSolver:  Solving for Ux, Initial residual = 0.0232007, Final residual = 1.83385e-05, No Iterations 1
smoothSolver:  Solving for Uy, Initial residual = 0.0431518, Final residual = 3.04712e-05, No Iterations 1
smoothSolver:  Solving for e, Initial residual = 0.0313128, Final residual = 2.31746e-05, No Iterations 1
DICPCG:  Solving for p, Initial residual = 0.0314539, Final residual = 9.32838e-07, No Iterations 15
diagonal:  Solving for rho, Initial residual = 0, Final residual = 0, No Iterations 0
time step continuity errors : sum local = 1.37889e-08, global = 9.0906e-11, cumulative = -7.59486e-09
PIMPLE: Iteration 2
smoothSolver:  Solving for Ux, Initial residual = 0.00014945, Final residual = 3.38289e-07, No Iterations 1
smoothSolver:  Solving for Uy, Initial residual = 0.000166878, Final residual = 2.64941e-07, No Iterations 1
smoothSolver:  Solving for e, Initial residual = 0.00876858, Final residual = 9.3024e-06, No Iterations 1
DICPCG:  Solving for p, Initial residual = 0.00261362, Final residual = 6.49908e-07, No Iterations 13
diagonal:  Solving for rho, Initial residual = 0, Final residual = 0, No Iterations 0
time step continuity errors : sum local = 1.01585e-08, global = -7.18732e-10, cumulative = -8.31359e-09
PIMPLE: Iteration 3
smoothSolver:  Solving for Ux, Initial residual = 2.26235e-05, Final residual = 4.53089e-08, No Iterations 1
smoothSolver:  Solving for Uy, Initial residual = 1.79799e-05, Final residual = 4.27982e-08, No Iterations 1
smoothSolver:  Solving for e, Initial residual = 0.000390031, Final residual = 5.85571e-07, No Iterations 1
DICPCG:  Solving for p, Initial residual = 0.000119419, Final residual = 7.00919e-07, No Iterations 8
diagonal:  Solving for rho, Initial residual = 0, Final residual = 0, No Iterations 0
time step continuity errors : sum local = 1.09415e-08, global = -7.35964e-10, cumulative = -9.04956e-09
smoothSolver:  Solving for k, Initial residual = 0.0427753, Final residual = 5.13345e-08, No Iterations 3
bounding k, min: 0 max: 8.64466 average: 0.0108081
ExecutionTime = 4.64 s  ClockTime = 6 s

fieldAverage fieldAverage1 write:
    Calculating averages

Courant Number mean: 0.0155219 max: 1.11664
Time = 0.00015

PIMPLE: Iteration 1
diagonal:  Solving for rho, Initial residual = 0, Final residual = 0, No Iterations 0
smoothSolver:  Solving for Ux, Initial residual = 0.0224545, Final residual = 1.58979e-05, No Iterations 1
smoothSolver:  Solving for Uy, Initial residual = 0.0375992, Final residual = 2.45344e-05, No Iterations 1
smoothSolver:  Solving for e, Initial residual = 0.0314924, Final residual = 2.10597e-05, No Iterations 1
DICPCG:  Solving for p, Initial residual = 0.0316339, Final residual = 6.4973e-07, No Iterations 16
diagonal:  Solving for rho, Initial residual = 0, Final residual = 0, No Iterations 0
time step continuity errors : sum local = 1.01965e-08, global = -1.73809e-09, cumulative = -1.07876e-08
PIMPLE: Iteration 2
smoothSolver:  Solving for Ux, Initial residual = 0.000144003, Final residual = 3.12616e-07, No Iterations 1
smoothSolver:  Solving for Uy, Initial residual = 0.000151444, Final residual = 2.91469e-07, No Iterations 1
smoothSolver:  Solving for e, Initial residual = 0.00830945, Final residual = 7.93087e-06, No Iterations 1
DICPCG:  Solving for p, Initial residual = 0.00247701, Final residual = 6.83392e-07, No Iterations 12
diagonal:  Solving for rho, Initial residual = 0, Final residual = 0, No Iterations 0
time step continuity errors : sum local = 1.12648e-08, global = -1.14045e-09, cumulative = -1.19281e-08
PIMPLE: Iteration 3
smoothSolver:  Solving for Ux, Initial residual = 2.03331e-05, Final residual = 3.96004e-08, No Iterations 1
smoothSolver:  Solving for Uy, Initial residual = 1.62236e-05, Final residual = 3.04835e-08, No Iterations 1
smoothSolver:  Solving for e, Initial residual = 0.000353498, Final residual = 4.8313e-07, No Iterations 1
DICPCG:  Solving for p, Initial residual = 0.000108671, Final residual = 7.26993e-07, No Iterations 8
diagonal:  Solving for rho, Initial residual = 0, Final residual = 0, No Iterations 0
time step continuity errors : sum local = 1.19695e-08, global = -1.18731e-09, cumulative = -1.31154e-08
smoothSolver:  Solving for k, Initial residual = 0.0369628, Final residual = 5.46405e-08, No Iterations 3
bounding k, min: 0 max: 12.5107 average: 0.0145865
ExecutionTime = 4.91 s  ClockTime = 7 s

fieldAverage fieldAverage1 write:
    Calculating averages

Courant Number mean: 0.0172695 max: 1.12735
Time = 0.00016

PIMPLE: Iteration 1
diagonal:  Solving for rho, Initial residual = 0, Final residual = 0, No Iterations 0
smoothSolver:  Solving for Ux, Initial residual = 0.021787, Final residual = 1.38903e-05, No Iterations 1
smoothSolver:  Solving for Uy, Initial residual = 0.0319877, Final residual = 1.92228e-05, No Iterations 1
smoothSolver:  Solving for e, Initial residual = 0.03176, Final residual = 1.876e-05, No Iterations 1
DICPCG:  Solving for p, Initial residual = 0.0317547, Final residual = 6.69651e-07, No Iterations 16
diagonal:  Solving for rho, Initial residual = 0, Final residual = 0, No Iterations 0
time step continuity errors : sum local = 1.10759e-08, global = -1.27649e-09, cumulative = -1.43919e-08
PIMPLE: Iteration 2
smoothSolver:  Solving for Ux, Initial residual = 0.000132075, Final residual = 2.70028e-07, No Iterations 1
smoothSolver:  Solving for Uy, Initial residual = 0.00013928, Final residual = 2.8301e-07, No Iterations 1
smoothSolver:  Solving for e, Initial residual = 0.00785072, Final residual = 6.58073e-06, No Iterations 1
DICPCG:  Solving for p, Initial residual = 0.00234192, Final residual = 6.23427e-07, No Iterations 12
diagonal:  Solving for rho, Initial residual = 0, Final residual = 0, No Iterations 0
time step continuity errors : sum local = 1.07671e-08, global = 8.76603e-10, cumulative = -1.35153e-08
PIMPLE: Iteration 3
smoothSolver:  Solving for Ux, Initial residual = 1.89126e-05, Final residual = 3.54016e-08, No Iterations 1
smoothSolver:  Solving for Uy, Initial residual = 1.39274e-05, Final residual = 3.64206e-08, No Iterations 1
smoothSolver:  Solving for e, Initial residual = 0.000334421, Final residual = 3.93357e-07, No Iterations 1
DICPCG:  Solving for p, Initial residual = 0.000104153, Final residual = 6.16851e-07, No Iterations 8
diagonal:  Solving for rho, Initial residual = 0, Final residual = 0, No Iterations 0
time step continuity errors : sum local = 1.06414e-08, global = -1.68444e-09, cumulative = -1.51997e-08
smoothSolver:  Solving for k, Initial residual = 0.0318482, Final residual = 5.62139e-08, No Iterations 3
bounding k, min: 0 max: 16.9351 average: 0.0190046
ExecutionTime = 5.18 s  ClockTime = 7 s

fieldAverage fieldAverage1 write:
    Calculating averages

Courant Number mean: 0.0189694 max: 1.13733
Time = 0.00017

PIMPLE: Iteration 1
diagonal:  Solving for rho, Initial residual = 0, Final residual = 0, No Iterations 0
smoothSolver:  Solving for Ux, Initial residual = 0.0211257, Final residual = 1.23558e-05, No Iterations 1
smoothSolver:  Solving for Uy, Initial residual = 0.0263238, Final residual = 1.42049e-05, No Iterations 1
smoothSolver:  Solving for e, Initial residual = 0.0319682, Final residual = 1.6803e-05, No Iterations 1
DICPCG:  Solving for p, Initial residual = 0.0319036, Final residual = 6.155e-07, No Iterations 16
diagonal:  Solving for rho, Initial residual = 0, Final residual = 0, No Iterations 0
time step continuity errors : sum local = 1.06587e-08, global = -6.17805e-10, cumulative = -1.58175e-08
PIMPLE: Iteration 2
smoothSolver:  Solving for Ux, Initial residual = 0.000120233, Final residual = 2.22571e-07, No Iterations 1
smoothSolver:  Solving for Uy, Initial residual = 0.000131764, Final residual = 2.40343e-07, No Iterations 1
smoothSolver:  Solving for e, Initial residual = 0.00734953, Final residual = 5.45942e-06, No Iterations 1
DICPCG:  Solving for p, Initial residual = 0.00219454, Final residual = 9.61163e-07, No Iterations 11
diagonal:  Solving for rho, Initial residual = 0, Final residual = 0, No Iterations 0
time step continuity errors : sum local = 1.72905e-08, global = 1.83386e-09, cumulative = -1.39837e-08
PIMPLE: Iteration 3
smoothSolver:  Solving for Ux, Initial residual = 1.69375e-05, Final residual = 2.81799e-08, No Iterations 1
smoothSolver:  Solving for Uy, Initial residual = 1.17844e-05, Final residual = 3.88881e-08, No Iterations 1
smoothSolver:  Solving for e, Initial residual = 0.00030495, Final residual = 3.40433e-07, No Iterations 1
DICPCG:  Solving for p, Initial residual = 9.50674e-05, Final residual = 5.49466e-07, No Iterations 8
diagonal:  Solving for rho, Initial residual = 0, Final residual = 0, No Iterations 0
time step continuity errors : sum local = 9.87338e-09, global = -1.76027e-09, cumulative = -1.5744e-08
smoothSolver:  Solving for k, Initial residual = 0.0273223, Final residual = 5.28827e-08, No Iterations 3
bounding k, min: 0 max: 21.6256 average: 0.0239586
ExecutionTime = 5.45 s  ClockTime = 7 s

fieldAverage fieldAverage1 write:
    Calculating averages

Courant Number mean: 0.0205866 max: 1.1422
Time = 0.00018

PIMPLE: Iteration 1
diagonal:  Solving for rho, Initial residual = 0, Final residual = 0, No Iterations 0
smoothSolver:  Solving for Ux, Initial residual = 0.0204998, Final residual = 1.08025e-05, No Iterations 1
smoothSolver:  Solving for Uy, Initial residual = 0.0206408, Final residual = 9.66736e-06, No Iterations 1
smoothSolver:  Solving for e, Initial residual = 0.0321725, Final residual = 1.53602e-05, No Iterations 1
DICPCG:  Solving for p, Initial residual = 0.0320726, Final residual = 9.21379e-07, No Iterations 15
diagonal:  Solving for rho, Initial residual = 0, Final residual = 0, No Iterations 0
time step continuity errors : sum local = 1.66083e-08, global = -2.45496e-09, cumulative = -1.81989e-08
PIMPLE: Iteration 2
smoothSolver:  Solving for Ux, Initial residual = 0.000110243, Final residual = 1.94212e-07, No Iterations 1
smoothSolver:  Solving for Uy, Initial residual = 0.000126697, Final residual = 2.04879e-07, No Iterations 1
smoothSolver:  Solving for e, Initial residual = 0.00716511, Final residual = 4.66971e-06, No Iterations 1
DICPCG:  Solving for p, Initial residual = 0.00214108, Final residual = 6.49563e-07, No Iterations 11
diagonal:  Solving for rho, Initial residual = 0, Final residual = 0, No Iterations 0
time step continuity errors : sum local = 1.21084e-08, global = 1.16169e-09, cumulative = -1.70372e-08
PIMPLE: Iteration 3
smoothSolver:  Solving for Ux, Initial residual = 1.52501e-05, Final residual = 2.24687e-08, No Iterations 1
smoothSolver:  Solving for Uy, Initial residual = 1.14718e-05, Final residual = 4.26718e-08, No Iterations 1
smoothSolver:  Solving for e, Initial residual = 0.000285997, Final residual = 2.91933e-07, No Iterations 1
DICPCG:  Solving for p, Initial residual = 8.95081e-05, Final residual = 8.97484e-07, No Iterations 7
diagonal:  Solving for rho, Initial residual = 0, Final residual = 0, No Iterations 0
time step continuity errors : sum local = 1.67121e-08, global = -3.35806e-09, cumulative = -2.03953e-08
smoothSolver:  Solving for k, Initial residual = 0.0233351, Final residual = 4.08577e-08, No Iterations 3
bounding k, min: 0 max: 26.2069 average: 0.0292964
ExecutionTime = 5.72 s  ClockTime = 7 s

fieldAverage fieldAverage1 write:
    Calculating averages

Courant Number mean: 0.022086 max: 1.13915
Time = 0.00019

PIMPLE: Iteration 1
diagonal:  Solving for rho, Initial residual = 0, Final residual = 0, No Iterations 0
smoothSolver:  Solving for Ux, Initial residual = 0.0199949, Final residual = 9.38615e-06, No Iterations 1
smoothSolver:  Solving for Uy, Initial residual = 0.0173073, Final residual = 7.37502e-06, No Iterations 1
smoothSolver:  Solving for e, Initial residual = 0.0323305, Final residual = 1.44703e-05, No Iterations 1
DICPCG:  Solving for p, Initial residual = 0.0321658, Final residual = 8.05557e-07, No Iterations 15
diagonal:  Solving for rho, Initial residual = 0, Final residual = 0, No Iterations 0
time step continuity errors : sum local = 1.50384e-08, global = -2.25603e-09, cumulative = -2.26513e-08
PIMPLE: Iteration 2
smoothSolver:  Solving for Ux, Initial residual = 0.000101908, Final residual = 1.58627e-07, No Iterations 1
smoothSolver:  Solving for Uy, Initial residual = 0.000126797, Final residual = 2.0103e-07, No Iterations 1
smoothSolver:  Solving for e, Initial residual = 0.0071057, Final residual = 4.10487e-06, No Iterations 1
DICPCG:  Solving for p, Initial residual = 0.00212126, Final residual = 6.3827e-07, No Iterations 11
diagonal:  Solving for rho, Initial residual = 0, Final residual = 0, No Iterations 0
time step continuity errors : sum local = 1.22762e-08, global = 7.34759e-10, cumulative = -2.19166e-08
PIMPLE: Iteration 3
smoothSolver:  Solving for Ux, Initial residual = 1.38858e-05, Final residual = 1.92831e-08, No Iterations 1
smoothSolver:  Solving for Uy, Initial residual = 1.20246e-05, Final residual = 4.70227e-08, No Iterations 1
smoothSolver:  Solving for e, Initial residual = 0.000279055, Final residual = 2.52208e-07, No Iterations 1
DICPCG:  Solving for p, Initial residual = 8.77761e-05, Final residual = 8.09253e-07, No Iterations 7
diagonal:  Solving for rho, Initial residual = 0, Final residual = 0, No Iterations 0
time step continuity errors : sum local = 1.55494e-08, global = -3.31055e-09, cumulative = -2.52271e-08
smoothSolver:  Solving for k, Initial residual = 0.0198459, Final residual = 6.48764e-08, No Iterations 3
bounding k, min: 0 max: 30.3155 average: 0.0348376
ExecutionTime = 6 s  ClockTime = 8 s

fieldAverage fieldAverage1 write:
    Calculating averages

Courant Number mean: 0.0234413 max: 1.12678
Time = 0.0002

PIMPLE: Iteration 1
diagonal:  Solving for rho, Initial residual = 0, Final residual = 0, No Iterations 0
smoothSolver:  Solving for Ux, Initial residual = 0.019495, Final residual = 7.98677e-06, No Iterations 1
smoothSolver:  Solving for Uy, Initial residual = 0.0163254, Final residual = 7.21287e-06, No Iterations 1
smoothSolver:  Solving for e, Initial residual = 0.0323586, Final residual = 1.39634e-05, No Iterations 1
DICPCG:  Solving for p, Initial residual = 0.0321474, Final residual = 7.58016e-07, No Iterations 15
diagonal:  Solving for rho, Initial residual = 0, Final residual = 0, No Iterations 0
time step continuity errors : sum local = 1.45939e-08, global = -1.94919e-09, cumulative = -2.71763e-08
PIMPLE: Iteration 2
smoothSolver:  Solving for Ux, Initial residual = 9.63276e-05, Final residual = 1.29299e-07, No Iterations 1
smoothSolver:  Solving for Uy, Initial residual = 0.000126622, Final residual = 1.99065e-07, No Iterations 1
smoothSolver:  Solving for e, Initial residual = 0.00691886, Final residual = 3.59648e-06, No Iterations 1
DICPCG:  Solving for p, Initial residual = 0.00206463, Final residual = 6.64456e-07, No Iterations 11
diagonal:  Solving for rho, Initial residual = 0, Final residual = 0, No Iterations 0
time step continuity errors : sum local = 1.31382e-08, global = 4.44906e-10, cumulative = -2.67314e-08
PIMPLE: Iteration 3
smoothSolver:  Solving for Ux, Initial residual = 1.24149e-05, Final residual = 2.02044e-08, No Iterations 1
smoothSolver:  Solving for Uy, Initial residual = 1.19875e-05, Final residual = 4.9956e-08, No Iterations 1
smoothSolver:  Solving for e, Initial residual = 0.000267346, Final residual = 2.30904e-07, No Iterations 1
DICPCG:  Solving for p, Initial residual = 8.39884e-05, Final residual = 8.37378e-07, No Iterations 7
diagonal:  Solving for rho, Initial residual = 0, Final residual = 0, No Iterations 0
time step continuity errors : sum local = 1.65413e-08, global = -3.10459e-09, cumulative = -2.9836e-08
smoothSolver:  Solving for k, Initial residual = 0.0167924, Final residual = 3.92192e-08, No Iterations 3
bounding k, min: 0 max: 33.6731 average: 0.0403924
ExecutionTime = 6.29 s  ClockTime = 8 s

fieldAverage fieldAverage1 write:
    Calculating averages

Courant Number mean: 0.0246354 max: 1.1033
Time = 0.00021

PIMPLE: Iteration 1
diagonal:  Solving for rho, Initial residual = 0, Final residual = 0, No Iterations 0
smoothSolver:  Solving for Ux, Initial residual = 0.0189688, Final residual = 6.88352e-06, No Iterations 1
smoothSolver:  Solving for Uy, Initial residual = 0.0166372, Final residual = 7.56615e-06, No Iterations 1
smoothSolver:  Solving for e, Initial residual = 0.0322546, Final residual = 1.35307e-05, No Iterations 1
DICPCG:  Solving for p, Initial residual = 0.0319418, Final residual = 7.28707e-07, No Iterations 15
diagonal:  Solving for rho, Initial residual = 0, Final residual = 0, No Iterations 0
time step continuity errors : sum local = 1.44155e-08, global = -1.4326e-09, cumulative = -3.12686e-08
PIMPLE: Iteration 2
smoothSolver:  Solving for Ux, Initial residual = 9.27379e-05, Final residual = 1.09306e-07, No Iterations 1
smoothSolver:  Solving for Uy, Initial residual = 0.000132528, Final residual = 2.11097e-07, No Iterations 1
smoothSolver:  Solving for e, Initial residual = 0.0066601, Final residual = 3.01249e-06, No Iterations 1
DICPCG:  Solving for p, Initial residual = 0.00198437, Final residual = 6.21802e-07, No Iterations 11
diagonal:  Solving for rho, Initial residual = 0, Final residual = 0, No Iterations 0
time step continuity errors : sum local = 1.25977e-08, global = 3.62916e-10, cumulative = -3.09057e-08
PIMPLE: Iteration 3
smoothSolver:  Solving for Ux, Initial residual = 1.12977e-05, Final residual = 2.08686e-08, No Iterations 1
smoothSolver:  Solving for Uy, Initial residual = 1.13824e-05, Final residual = 4.82241e-08, No Iterations 1
smoothSolver:  Solving for e, Initial residual = 0.000252486, Final residual = 2.05908e-07, No Iterations 1
DICPCG:  Solving for p, Initial residual = 7.88371e-05, Final residual = 8.93126e-07, No Iterations 7
diagonal:  Solving for rho, Initial residual = 0, Final residual = 0, No Iterations 0
time step continuity errors : sum local = 1.80775e-08, global = -2.53712e-09, cumulative = -3.34428e-08
smoothSolver:  Solving for k, Initial residual = 0.0141171, Final residual = 7.30814e-07, No Iterations 2
bounding k, min: 0 max: 36.1146 average: 0.0457737
ExecutionTime = 6.54 s  ClockTime = 8 s

fieldAverage fieldAverage1 write:
    Calculating averages

Courant Number mean: 0.0256599 max: 1.06712
Time = 0.00022

PIMPLE: Iteration 1
diagonal:  Solving for rho, Initial residual = 0, Final residual = 0, No Iterations 0
smoothSolver:  Solving for Ux, Initial residual = 0.0186555, Final residual = 6.06643e-06, No Iterations 1
smoothSolver:  Solving for Uy, Initial residual = 0.0184486, Final residual = 8.42682e-06, No Iterations 1
smoothSolver:  Solving for e, Initial residual = 0.031863, Final residual = 1.30119e-05, No Iterations 1
DICPCG:  Solving for p, Initial residual = 0.0314086, Final residual = 6.7855e-07, No Iterations 15
diagonal:  Solving for rho, Initial residual = 0, Final residual = 0, No Iterations 0
time step continuity errors : sum local = 1.37477e-08, global = -1.07302e-09, cumulative = -3.45158e-08
PIMPLE: Iteration 2
smoothSolver:  Solving for Ux, Initial residual = 8.96376e-05, Final residual = 1.06156e-07, No Iterations 1
smoothSolver:  Solving for Uy, Initial residual = 0.000139426, Final residual = 2.39995e-07, No Iterations 1
smoothSolver:  Solving for e, Initial residual = 0.00648301, Final residual = 2.56316e-06, No Iterations 1
DICPCG:  Solving for p, Initial residual = 0.00193958, Final residual = 5.41033e-07, No Iterations 11
diagonal:  Solving for rho, Initial residual = 0, Final residual = 0, No Iterations 0
time step continuity errors : sum local = 1.1198e-08, global = 5.21493e-10, cumulative = -3.39943e-08
PIMPLE: Iteration 3
smoothSolver:  Solving for Ux, Initial residual = 1.05533e-05, Final residual = 2.14343e-08, No Iterations 1
smoothSolver:  Solving for Uy, Initial residual = 1.07245e-05, Final residual = 4.83129e-08, No Iterations 1
smoothSolver:  Solving for e, Initial residual = 0.000236672, Final residual = 1.78991e-07, No Iterations 1
DICPCG:  Solving for p, Initial residual = 7.42817e-05, Final residual = 8.68724e-07, No Iterations 7
diagonal:  Solving for rho, Initial residual = 0, Final residual = 0, No Iterations 0
time step continuity errors : sum local = 1.79633e-08, global = -1.78763e-09, cumulative = -3.57819e-08
smoothSolver:  Solving for k, Initial residual = 0.0117633, Final residual = 4.35294e-07, No Iterations 2
bounding k, min: 0 max: 37.5812 average: 0.0508137
ExecutionTime = 6.8 s  ClockTime = 8 s

fieldAverage fieldAverage1 write:
    Calculating averages

Courant Number mean: 0.0265108 max: 1.01608
Time = 0.00023

PIMPLE: Iteration 1
diagonal:  Solving for rho, Initial residual = 0, Final residual = 0, No Iterations 0
smoothSolver:  Solving for Ux, Initial residual = 0.018644, Final residual = 5.83819e-06, No Iterations 1
smoothSolver:  Solving for Uy, Initial residual = 0.020811, Final residual = 9.51011e-06, No Iterations 1
smoothSolver:  Solving for e, Initial residual = 0.031041, Final residual = 1.22956e-05, No Iterations 1
DICPCG:  Solving for p, Initial residual = 0.0304566, Final residual = 6.11665e-07, No Iterations 15
diagonal:  Solving for rho, Initial residual = 0, Final residual = 0, No Iterations 0
time step continuity errors : sum local = 1.26545e-08, global = -8.83674e-10, cumulative = -3.66656e-08
PIMPLE: Iteration 2
smoothSolver:  Solving for Ux, Initial residual = 8.7363e-05, Final residual = 1.03888e-07, No Iterations 1
smoothSolver:  Solving for Uy, Initial residual = 0.000143676, Final residual = 2.65712e-07, No Iterations 1
smoothSolver:  Solving for e, Initial residual = 0.00648737, Final residual = 2.45708e-06, No Iterations 1
DICPCG:  Solving for p, Initial residual = 0.00194702, Final residual = 8.67821e-07, No Iterations 10
diagonal:  Solving for rho, Initial residual = 0, Final residual = 0, No Iterations 0
time step continuity errors : sum local = 1.82971e-08, global = 1.23662e-09, cumulative = -3.5429e-08
PIMPLE: Iteration 3
smoothSolver:  Solving for Ux, Initial residual = 9.73864e-06, Final residual = 2.13029e-08, No Iterations 1
smoothSolver:  Solving for Uy, Initial residual = 1.19222e-05, Final residual = 5.3435e-08, No Iterations 1
smoothSolver:  Solving for e, Initial residual = 0.000231359, Final residual = 1.65647e-07, No Iterations 1
DICPCG:  Solving for p, Initial residual = 7.26878e-05, Final residual = 8.72935e-07, No Iterations 7
diagonal:  Solving for rho, Initial residual = 0, Final residual = 0, No Iterations 0
time step continuity errors : sum local = 1.83876e-08, global = -1.72768e-09, cumulative = -3.71567e-08
smoothSolver:  Solving for k, Initial residual = 0.00969005, Final residual = 2.77353e-07, No Iterations 2
bounding k, min: 0 max: 38.0929 average: 0.0553757
ExecutionTime = 7.08 s  ClockTime = 9 s

fieldAverage fieldAverage1 write:
    Calculating averages

Courant Number mean: 0.0271866 max: 0.956884
Time = 0.00024

PIMPLE: Iteration 1
diagonal:  Solving for rho, Initial residual = 0, Final residual = 0, No Iterations 0
smoothSolver:  Solving for Ux, Initial residual = 0.0186691, Final residual = 5.86662e-06, No Iterations 1
smoothSolver:  Solving for Uy, Initial residual = 0.023629, Final residual = 1.08058e-05, No Iterations 1
smoothSolver:  Solving for e, Initial residual = 0.0297733, Final residual = 1.13868e-05, No Iterations 1
DICPCG:  Solving for p, Initial residual = 0.0291287, Final residual = 5.73921e-07, No Iterations 15
diagonal:  Solving for rho, Initial residual = 0, Final residual = 0, No Iterations 0
time step continuity errors : sum local = 1.20906e-08, global = -1.07873e-09, cumulative = -3.82354e-08
PIMPLE: Iteration 2
smoothSolver:  Solving for Ux, Initial residual = 8.57135e-05, Final residual = 9.51153e-08, No Iterations 1
smoothSolver:  Solving for Uy, Initial residual = 0.000141507, Final residual = 2.58754e-07, No Iterations 1
smoothSolver:  Solving for e, Initial residual = 0.00655742, Final residual = 2.46803e-06, No Iterations 1
DICPCG:  Solving for p, Initial residual = 0.00196862, Final residual = 8.57967e-07, No Iterations 10
diagonal:  Solving for rho, Initial residual = 0, Final residual = 0, No Iterations 0
time step continuity errors : sum local = 1.83772e-08, global = -1.13484e-09, cumulative = -3.93702e-08
PIMPLE: Iteration 3
smoothSolver:  Solving for Ux, Initial residual = 8.88878e-06, Final residual = 1.87798e-08, No Iterations 1
smoothSolver:  Solving for Uy, Initial residual = 1.3455e-05, Final residual = 5.46977e-08, No Iterations 1
smoothSolver:  Solving for e, Initial residual = 0.000223897, Final residual = 1.56054e-07, No Iterations 1
DICPCG:  Solving for p, Initial residual = 7.03939e-05, Final residual = 7.72137e-07, No Iterations 7
diagonal:  Solving for rho, Initial residual = 0, Final residual = 0, No Iterations 0
time step continuity errors : sum local = 1.65227e-08, global = -1.66749e-09, cumulative = -4.10377e-08
smoothSolver:  Solving for k, Initial residual = 0.00799483, Final residual = 2.45269e-07, No Iterations 2
bounding k, min: 0 max: 37.7226 average: 0.0593609
ExecutionTime = 7.34 s  ClockTime = 9 s

fieldAverage fieldAverage1 write:
    Calculating averages

Courant Number mean: 0.0276906 max: 0.91147
Time = 0.00025

PIMPLE: Iteration 1
diagonal:  Solving for rho, Initial residual = 0, Final residual = 0, No Iterations 0
smoothSolver:  Solving for Ux, Initial residual = 0.0187147, Final residual = 6.01502e-06, No Iterations 1
smoothSolver:  Solving for Uy, Initial residual = 0.0272808, Final residual = 1.26007e-05, No Iterations 1
smoothSolver:  Solving for e, Initial residual = 0.0281848, Final residual = 1.02966e-05, No Iterations 1
DICPCG:  Solving for p, Initial residual = 0.0275399, Final residual = 6.55016e-07, No Iterations 15
diagonal:  Solving for rho, Initial residual = 0, Final residual = 0, No Iterations 0
time step continuity errors : sum local = 1.40123e-08, global = -1.92876e-09, cumulative = -4.29665e-08
PIMPLE: Iteration 2
smoothSolver:  Solving for Ux, Initial residual = 8.42342e-05, Final residual = 8.40696e-08, No Iterations 1
smoothSolver:  Solving for Uy, Initial residual = 0.000136947, Final residual = 2.38402e-07, No Iterations 1
smoothSolver:  Solving for e, Initial residual = 0.00658783, Final residual = 2.42143e-06, No Iterations 1
DICPCG:  Solving for p, Initial residual = 0.00197906, Final residual = 6.89739e-07, No Iterations 11
diagonal:  Solving for rho, Initial residual = 0, Final residual = 0, No Iterations 0
time step continuity errors : sum local = 1.49682e-08, global = -3.55904e-09, cumulative = -4.65255e-08
PIMPLE: Iteration 3
smoothSolver:  Solving for Ux, Initial residual = 8.22582e-06, Final residual = 1.55713e-08, No Iterations 1
smoothSolver:  Solving for Uy, Initial residual = 1.49031e-05, Final residual = 5.18938e-08, No Iterations 1
smoothSolver:  Solving for e, Initial residual = 0.000215943, Final residual = 1.40589e-07, No Iterations 1
DICPCG:  Solving for p, Initial residual = 6.82964e-05, Final residual = 9.37409e-07, No Iterations 6
diagonal:  Solving for rho, Initial residual = 0, Final residual = 0, No Iterations 0
time step continuity errors : sum local = 2.03232e-08, global = -4.22485e-09, cumulative = -5.07504e-08
smoothSolver:  Solving for k, Initial residual = 0.00690208, Final residual = 1.89857e-07, No Iterations 2
bounding k, min: 0 max: 36.5895 average: 0.0627082
ExecutionTime = 7.61 s  ClockTime = 9 s

fieldAverage fieldAverage1 write:
    Calculating averages

Courant Number mean: 0.0280237 max: 0.857251
Time = 0.00026

PIMPLE: Iteration 1
diagonal:  Solving for rho, Initial residual = 0, Final residual = 0, No Iterations 0
smoothSolver:  Solving for Ux, Initial residual = 0.0188728, Final residual = 6.23539e-06, No Iterations 1
smoothSolver:  Solving for Uy, Initial residual = 0.0317922, Final residual = 1.47855e-05, No Iterations 1
smoothSolver:  Solving for e, Initial residual = 0.0266039, Final residual = 9.08178e-06, No Iterations 1
DICPCG:  Solving for p, Initial residual = 0.0263804, Final residual = 7.35918e-07, No Iterations 15
diagonal:  Solving for rho, Initial residual = 0, Final residual = 0, No Iterations 0
time step continuity errors : sum local = 1.59442e-08, global = -2.21016e-09, cumulative = -5.29605e-08
PIMPLE: Iteration 2
smoothSolver:  Solving for Ux, Initial residual = 8.19575e-05, Final residual = 7.47759e-08, No Iterations 1
smoothSolver:  Solving for Uy, Initial residual = 0.000139027, Final residual = 2.29127e-07, No Iterations 1
smoothSolver:  Solving for e, Initial residual = 0.00654203, Final residual = 2.34771e-06, No Iterations 1
DICPCG:  Solving for p, Initial residual = 0.0019687, Final residual = 8.38354e-07, No Iterations 11
diagonal:  Solving for rho, Initial residual = 0, Final residual = 0, No Iterations 0
time step continuity errors : sum local = 1.83865e-08, global = -4.54808e-09, cumulative = -5.75086e-08
PIMPLE: Iteration 3
smoothSolver:  Solving for Ux, Initial residual = 7.6992e-06, Final residual = 1.26025e-08, No Iterations 1
smoothSolver:  Solving for Uy, Initial residual = 1.57055e-05, Final residual = 4.98926e-08, No Iterations 1
smoothSolver:  Solving for e, Initial residual = 0.00020681, Final residual = 1.2405e-07, No Iterations 1
DICPCG:  Solving for p, Initial residual = 6.5554e-05, Final residual = 7.35607e-07, No Iterations 6
diagonal:  Solving for rho, Initial residual = 0, Final residual = 0, No Iterations 0
time step continuity errors : sum local = 1.61179e-08, global = -2.60541e-09, cumulative = -6.0114e-08
smoothSolver:  Solving for k, Initial residual = 0.00623332, Final residual = 1.23525e-07, No Iterations 2
bounding k, min: 0 max: 34.8567 average: 0.065391
ExecutionTime = 7.88 s  ClockTime = 10 s

fieldAverage fieldAverage1 write:
    Calculating averages

Courant Number mean: 0.0281928 max: 0.799584
Time = 0.00027

PIMPLE: Iteration 1
diagonal:  Solving for rho, Initial residual = 0, Final residual = 0, No Iterations 0
smoothSolver:  Solving for Ux, Initial residual = 0.0191921, Final residual = 6.4841e-06, No Iterations 1
smoothSolver:  Solving for Uy, Initial residual = 0.038088, Final residual = 1.84005e-05, No Iterations 1
smoothSolver:  Solving for e, Initial residual = 0.0256648, Final residual = 7.8957e-06, No Iterations 1
DICPCG:  Solving for p, Initial residual = 0.0258255, Final residual = 6.88486e-07, No Iterations 15
diagonal:  Solving for rho, Initial residual = 0, Final residual = 0, No Iterations 0
time step continuity errors : sum local = 1.50833e-08, global = -1.28187e-09, cumulative = -6.13959e-08
PIMPLE: Iteration 2
smoothSolver:  Solving for Ux, Initial residual = 7.83187e-05, Final residual = 6.68019e-08, No Iterations 1
smoothSolver:  Solving for Uy, Initial residual = 0.000158768, Final residual = 2.23822e-07, No Iterations 1
smoothSolver:  Solving for e, Initial residual = 0.00649849, Final residual = 2.32267e-06, No Iterations 1
DICPCG:  Solving for p, Initial residual = 0.00195664, Final residual = 8.80257e-07, No Iterations 11
diagonal:  Solving for rho, Initial residual = 0, Final residual = 0, No Iterations 0
time step continuity errors : sum local = 1.95097e-08, global = -4.85637e-09, cumulative = -6.62523e-08
PIMPLE: Iteration 3
smoothSolver:  Solving for Ux, Initial residual = 7.24696e-06, Final residual = 9.16859e-09, No Iterations 1
smoothSolver:  Solving for Uy, Initial residual = 1.58441e-05, Final residual = 4.3349e-08, No Iterations 1
smoothSolver:  Solving for e, Initial residual = 0.000195798, Final residual = 1.08049e-07, No Iterations 1
DICPCG:  Solving for p, Initial residual = 6.16828e-05, Final residual = 6.42502e-07, No Iterations 6
diagonal:  Solving for rho, Initial residual = 0, Final residual = 0, No Iterations 0
time step continuity errors : sum local = 1.4226e-08, global = 2.84038e-10, cumulative = -6.59682e-08
smoothSolver:  Solving for k, Initial residual = 0.00590235, Final residual = 6.23815e-08, No Iterations 2
bounding k, min: 0 max: 34.6133 average: 0.0674189
ExecutionTime = 8.16 s  ClockTime = 10 s

fieldAverage fieldAverage1 write:
    Calculating averages

Courant Number mean: 0.0282127 max: 0.742527
Time = 0.00028

PIMPLE: Iteration 1
diagonal:  Solving for rho, Initial residual = 0, Final residual = 0, No Iterations 0
smoothSolver:  Solving for Ux, Initial residual = 0.0196211, Final residual = 6.73617e-06, No Iterations 1
smoothSolver:  Solving for Uy, Initial residual = 0.0470535, Final residual = 2.43462e-05, No Iterations 1
smoothSolver:  Solving for e, Initial residual = 0.0253206, Final residual = 7.03288e-06, No Iterations 1
DICPCG:  Solving for p, Initial residual = 0.0256844, Final residual = 6.03142e-07, No Iterations 15
diagonal:  Solving for rho, Initial residual = 0, Final residual = 0, No Iterations 0
time step continuity errors : sum local = 1.33674e-08, global = -2.63869e-10, cumulative = -6.62321e-08
PIMPLE: Iteration 2
smoothSolver:  Solving for Ux, Initial residual = 7.42873e-05, Final residual = 6.03171e-08, No Iterations 1
smoothSolver:  Solving for Uy, Initial residual = 0.000186256, Final residual = 2.19912e-07, No Iterations 1
smoothSolver:  Solving for e, Initial residual = 0.00640362, Final residual = 2.28737e-06, No Iterations 1
DICPCG:  Solving for p, Initial residual = 0.00192713, Final residual = 8.80869e-07, No Iterations 11
diagonal:  Solving for rho, Initial residual = 0, Final residual = 0, No Iterations 0
time step continuity errors : sum local = 1.97524e-08, global = -4.60445e-09, cumulative = -7.08365e-08
PIMPLE: Iteration 3
smoothSolver:  Solving for Ux, Initial residual = 6.84183e-06, Final residual = 6.77808e-09, No Iterations 1
smoothSolver:  Solving for Uy, Initial residual = 1.74352e-05, Final residual = 3.86411e-08, No Iterations 1
smoothSolver:  Solving for e, Initial residual = 0.000182701, Final residual = 9.55918e-08, No Iterations 1
DICPCG:  Solving for p, Initial residual = 5.66501e-05, Final residual = 7.31039e-07, No Iterations 6
diagonal:  Solving for rho, Initial residual = 0, Final residual = 0, No Iterations 0
time step continuity errors : sum local = 1.63757e-08, global = 2.83985e-09, cumulative = -6.79967e-08
smoothSolver:  Solving for k, Initial residual = 0.00594717, Final residual = 5.86726e-08, No Iterations 2
bounding k, min: 0 max: 34.551 average: 0.0688372
ExecutionTime = 8.44 s  ClockTime = 10 s

fieldAverage fieldAverage1 write:
    Calculating averages

Courant Number mean: 0.0281065 max: 0.697016
Time = 0.00029

PIMPLE: Iteration 1
diagonal:  Solving for rho, Initial residual = 0, Final residual = 0, No Iterations 0
smoothSolver:  Solving for Ux, Initial residual = 0.0201366, Final residual = 7.014e-06, No Iterations 1
smoothSolver:  Solving for Uy, Initial residual = 0.0586992, Final residual = 3.2584e-05, No Iterations 1
smoothSolver:  Solving for e, Initial residual = 0.0252503, Final residual = 6.43784e-06, No Iterations 1
DICPCG:  Solving for p, Initial residual = 0.0255978, Final residual = 4.88478e-07, No Iterations 15
diagonal:  Solving for rho, Initial residual = 0, Final residual = 0, No Iterations 0
time step continuity errors : sum local = 1.09478e-08, global = 3.2702e-10, cumulative = -6.76697e-08
PIMPLE: Iteration 2
smoothSolver:  Solving for Ux, Initial residual = 7.00777e-05, Final residual = 5.2611e-08, No Iterations 1
smoothSolver:  Solving for Uy, Initial residual = 0.00021398, Final residual = 2.26813e-07, No Iterations 1
smoothSolver:  Solving for e, Initial residual = 0.00633844, Final residual = 2.31478e-06, No Iterations 1
DICPCG:  Solving for p, Initial residual = 0.00190963, Final residual = 8.58379e-07, No Iterations 11
diagonal:  Solving for rho, Initial residual = 0, Final residual = 0, No Iterations 0
time step continuity errors : sum local = 1.94297e-08, global = -4.1973e-09, cumulative = -7.1867e-08
PIMPLE: Iteration 3
smoothSolver:  Solving for Ux, Initial residual = 6.58271e-06, Final residual = 5.78179e-09, No Iterations 1
smoothSolver:  Solving for Uy, Initial residual = 2.10782e-05, Final residual = 3.70534e-08, No Iterations 1
smoothSolver:  Solving for e, Initial residual = 0.000180354, Final residual = 9.13736e-08, No Iterations 1
DICPCG:  Solving for p, Initial residual = 5.54675e-05, Final residual = 8.36828e-07, No Iterations 6
diagonal:  Solving for rho, Initial residual = 0, Final residual = 0, No Iterations 0
time step continuity errors : sum local = 1.89222e-08, global = 3.44674e-09, cumulative = -6.84202e-08
smoothSolver:  Solving for k, Initial residual = 0.00612516, Final residual = 6.33879e-08, No Iterations 2
bounding k, min: 0 max: 33.3425 average: 0.0697209
ExecutionTime = 8.7 s  ClockTime = 10 s

fieldAverage fieldAverage1 write:
    Calculating averages

Courant Number mean: 0.0279059 max: 0.663939
Time = 0.0003

PIMPLE: Iteration 1
diagonal:  Solving for rho, Initial residual = 0, Final residual = 0, No Iterations 0
smoothSolver:  Solving for Ux, Initial residual = 0.0207124, Final residual = 7.3029e-06, No Iterations 1
smoothSolver:  Solving for Uy, Initial residual = 0.0716041, Final residual = 4.16537e-05, No Iterations 1
smoothSolver:  Solving for e, Initial residual = 0.0253312, Final residual = 6.11323e-06, No Iterations 1
DICPCG:  Solving for p, Initial residual = 0.0259203, Final residual = 6.42622e-07, No Iterations 15
diagonal:  Solving for rho, Initial residual = 0, Final residual = 0, No Iterations 0
time step continuity errors : sum local = 1.45233e-08, global = 1.90824e-09, cumulative = -6.6512e-08
PIMPLE: Iteration 2
smoothSolver:  Solving for Ux, Initial residual = 6.68069e-05, Final residual = 4.86258e-08, No Iterations 1
smoothSolver:  Solving for Uy, Initial residual = 0.000243873, Final residual = 2.71205e-07, No Iterations 1
smoothSolver:  Solving for e, Initial residual = 0.00631725, Final residual = 2.32767e-06, No Iterations 1
DICPCG:  Solving for p, Initial residual = 0.00190475, Final residual = 6.91368e-07, No Iterations 11
diagonal:  Solving for rho, Initial residual = 0, Final residual = 0, No Iterations 0
time step continuity errors : sum local = 1.57455e-08, global = -3.39934e-09, cumulative = -6.99113e-08
PIMPLE: Iteration 3
smoothSolver:  Solving for Ux, Initial residual = 6.15053e-06, Final residual = 5.35389e-09, No Iterations 1
smoothSolver:  Solving for Uy, Initial residual = 2.51203e-05, Final residual = 4.12302e-08, No Iterations 1
smoothSolver:  Solving for e, Initial residual = 0.000174042, Final residual = 9.0647e-08, No Iterations 1
DICPCG:  Solving for p, Initial residual = 5.37802e-05, Final residual = 7.64253e-07, No Iterations 6
diagonal:  Solving for rho, Initial residual = 0, Final residual = 0, No Iterations 0
time step continuity errors : sum local = 1.73878e-08, global = 2.7384e-09, cumulative = -6.71729e-08
smoothSolver:  Solving for k, Initial residual = 0.00622878, Final residual = 7.49646e-08, No Iterations 2
bounding k, min: 0 max: 30.1207 average: 0.0701671
ExecutionTime = 8.98 s  ClockTime = 11 s

fieldAverage fieldAverage1 write:
    Calculating averages

Courant Number mean: 0.0276662 max: 0.630186
Time = 0.00031

PIMPLE: Iteration 1
diagonal:  Solving for rho, Initial residual = 0, Final residual = 0, No Iterations 0
smoothSolver:  Solving for Ux, Initial residual = 0.0213262, Final residual = 7.59561e-06, No Iterations 1
smoothSolver:  Solving for Uy, Initial residual = 0.0832327, Final residual = 4.91937e-05, No Iterations 1
smoothSolver:  Solving for e, Initial residual = 0.0261127, Final residual = 6.90772e-06, No Iterations 1
DICPCG:  Solving for p, Initial residual = 0.0270137, Final residual = 7.84366e-07, No Iterations 15
diagonal:  Solving for rho, Initial residual = 0, Final residual = 0, No Iterations 0
time step continuity errors : sum local = 1.78165e-08, global = 3.32808e-09, cumulative = -6.38449e-08
PIMPLE: Iteration 2
smoothSolver:  Solving for Ux, Initial residual = 6.4698e-05, Final residual = 4.67229e-08, No Iterations 1
smoothSolver:  Solving for Uy, Initial residual = 0.000281892, Final residual = 3.27138e-07, No Iterations 1
smoothSolver:  Solving for e, Initial residual = 0.00623031, Final residual = 2.24316e-06, No Iterations 1
DICPCG:  Solving for p, Initial residual = 0.00187903, Final residual = 9.29489e-07, No Iterations 10
diagonal:  Solving for rho, Initial residual = 0, Final residual = 0, No Iterations 0
time step continuity errors : sum local = 2.12309e-08, global = -3.33102e-09, cumulative = -6.71759e-08
PIMPLE: Iteration 3
smoothSolver:  Solving for Ux, Initial residual = 5.86974e-06, Final residual = 5.20603e-09, No Iterations 1
smoothSolver:  Solving for Uy, Initial residual = 2.75707e-05, Final residual = 4.52493e-08, No Iterations 1
smoothSolver:  Solving for e, Initial residual = 0.000172544, Final residual = 8.76219e-08, No Iterations 1
DICPCG:  Solving for p, Initial residual = 5.32216e-05, Final residual = 6.68076e-07, No Iterations 6
diagonal:  Solving for rho, Initial residual = 0, Final residual = 0, No Iterations 0
time step continuity errors : sum local = 1.52448e-08, global = 2.10357e-09, cumulative = -6.50723e-08
smoothSolver:  Solving for k, Initial residual = 0.00610393, Final residual = 5.9365e-08, No Iterations 2
bounding k, min: 0 max: 25.5984 average: 0.0702841
ExecutionTime = 9.25 s  ClockTime = 11 s

fieldAverage fieldAverage1 write:
    Calculating averages

Courant Number mean: 0.0275974 max: 0.596807
Time = 0.00032

PIMPLE: Iteration 1
diagonal:  Solving for rho, Initial residual = 0, Final residual = 0, No Iterations 0
smoothSolver:  Solving for Ux, Initial residual = 0.0219424, Final residual = 7.87634e-06, No Iterations 1
smoothSolver:  Solving for Uy, Initial residual = 0.0920864, Final residual = 5.35819e-05, No Iterations 1
smoothSolver:  Solving for e, Initial residual = 0.0273288, Final residual = 7.91005e-06, No Iterations 1
DICPCG:  Solving for p, Initial residual = 0.0282801, Final residual = 8.82068e-07, No Iterations 15
diagonal:  Solving for rho, Initial residual = 0, Final residual = 0, No Iterations 0
time step continuity errors : sum local = 2.00737e-08, global = 3.90364e-09, cumulative = -6.11687e-08
PIMPLE: Iteration 2
smoothSolver:  Solving for Ux, Initial residual = 6.31061e-05, Final residual = 4.43527e-08, No Iterations 1
smoothSolver:  Solving for Uy, Initial residual = 0.000339224, Final residual = 3.85254e-07, No Iterations 1
smoothSolver:  Solving for e, Initial residual = 0.00603754, Final residual = 2.07553e-06, No Iterations 1
DICPCG:  Solving for p, Initial residual = 0.00182308, Final residual = 6.98557e-07, No Iterations 11
diagonal:  Solving for rho, Initial residual = 0, Final residual = 0, No Iterations 0
time step continuity errors : sum local = 1.59553e-08, global = 2.08873e-09, cumulative = -5.90799e-08
PIMPLE: Iteration 3
smoothSolver:  Solving for Ux, Initial residual = 5.64119e-06, Final residual = 5.14713e-09, No Iterations 1
smoothSolver:  Solving for Uy, Initial residual = 2.84391e-05, Final residual = 4.83277e-08, No Iterations 1
smoothSolver:  Solving for e, Initial residual = 0.000160637, Final residual = 7.76173e-08, No Iterations 1
DICPCG:  Solving for p, Initial residual = 4.9426e-05, Final residual = 8.73979e-07, No Iterations 5
diagonal:  Solving for rho, Initial residual = 0, Final residual = 0, No Iterations 0
time step continuity errors : sum local = 1.9943e-08, global = 7.66147e-10, cumulative = -5.83138e-08
smoothSolver:  Solving for k, Initial residual = 0.00583975, Final residual = 3.1897e-08, No Iterations 2
bounding k, min: 0 max: 21.9907 average: 0.0701724
ExecutionTime = 9.53 s  ClockTime = 11 s

fieldAverage fieldAverage1 write:
    Calculating averages

Courant Number mean: 0.0277467 max: 0.572586
Time = 0.00033

PIMPLE: Iteration 1
diagonal:  Solving for rho, Initial residual = 0, Final residual = 0, No Iterations 0
smoothSolver:  Solving for Ux, Initial residual = 0.022548, Final residual = 8.10105e-06, No Iterations 1
smoothSolver:  Solving for Uy, Initial residual = 0.0987376, Final residual = 5.47273e-05, No Iterations 1
smoothSolver:  Solving for e, Initial residual = 0.0286419, Final residual = 8.75862e-06, No Iterations 1
DICPCG:  Solving for p, Initial residual = 0.0296058, Final residual = 9.66439e-07, No Iterations 15
diagonal:  Solving for rho, Initial residual = 0, Final residual = 0, No Iterations 0
time step continuity errors : sum local = 2.19706e-08, global = 3.84063e-09, cumulative = -5.44732e-08
PIMPLE: Iteration 2
smoothSolver:  Solving for Ux, Initial residual = 6.06788e-05, Final residual = 4.02615e-08, No Iterations 1
smoothSolver:  Solving for Uy, Initial residual = 0.000396153, Final residual = 4.16629e-07, No Iterations 1
smoothSolver:  Solving for e, Initial residual = 0.00589928, Final residual = 1.99796e-06, No Iterations 1
DICPCG:  Solving for p, Initial residual = 0.00178789, Final residual = 6.89899e-07, No Iterations 11
diagonal:  Solving for rho, Initial residual = 0, Final residual = 0, No Iterations 0
time step continuity errors : sum local = 1.57131e-08, global = 2.64634e-09, cumulative = -5.18268e-08
PIMPLE: Iteration 3
smoothSolver:  Solving for Ux, Initial residual = 5.67441e-06, Final residual = 4.88714e-09, No Iterations 1
smoothSolver:  Solving for Uy, Initial residual = 3.06773e-05, Final residual = 5.37692e-08, No Iterations 1
smoothSolver:  Solving for e, Initial residual = 0.000152793, Final residual = 6.94314e-08, No Iterations 1
DICPCG:  Solving for p, Initial residual = 4.68596e-05, Final residual = 6.77401e-07, No Iterations 5
diagonal:  Solving for rho, Initial residual = 0, Final residual = 0, No Iterations 0
time step continuity errors : sum local = 1.54142e-08, global = -6.34071e-10, cumulative = -5.24609e-08
smoothSolver:  Solving for k, Initial residual = 0.00561395, Final residual = 2.32633e-08, No Iterations 2
bounding k, min: 0 max: 21.1777 average: 0.0699198
ExecutionTime = 9.8 s  ClockTime = 11 s

fieldAverage fieldAverage1 write:
    Calculating averages

Courant Number mean: 0.0279923 max: 0.549505
Time = 0.00034

PIMPLE: Iteration 1
diagonal:  Solving for rho, Initial residual = 0, Final residual = 0, No Iterations 0
smoothSolver:  Solving for Ux, Initial residual = 0.0230835, Final residual = 8.21356e-06, No Iterations 1
smoothSolver:  Solving for Uy, Initial residual = 0.101385, Final residual = 5.21395e-05, No Iterations 1
[...]
DICPCG:  Solving for p, Initial residual = 0.0899517, Final residual = 6.94004e-07, No Iterations 16
diagonal:  Solving for rho, Initial residual = 0, Final residual = 0, No Iterations 0
time step continuity errors : sum local = 2.83587e-10, global = 1.41358e-12, cumulative = -1.5083e-08
PIMPLE: Iteration 2
smoothSolver:  Solving for Ux, Initial residual = 6.72674e-06, Final residual = 5.91919e-09, No Iterations 1
smoothSolver:  Solving for Uy, Initial residual = 1.48033e-05, Final residual = 9.42634e-09, No Iterations 1
smoothSolver:  Solving for e, Initial residual = 0.00129002, Final residual = 5.63794e-07, No Iterations 1
DICPCG:  Solving for p, Initial residual = 0.00501701, Final residual = 7.91641e-07, No Iterations 13
diagonal:  Solving for rho, Initial residual = 0, Final residual = 0, No Iterations 0
time step continuity errors : sum local = 3.34684e-10, global = -1.0141e-10, cumulative = -1.51844e-08
PIMPLE: Iteration 3
smoothSolver:  Solving for Ux, Initial residual = 8.76562e-07, Final residual = 8.76562e-07, No Iterations 0
smoothSolver:  Solving for Uy, Initial residual = 1.40272e-06, Final residual = 1.09245e-09, No Iterations 1
smoothSolver:  Solving for e, Initial residual = 8.78798e-05, Final residual = 3.38556e-08, No Iterations 1
DICPCG:  Solving for p, Initial residual = 0.000339192, Final residual = 7.90259e-07, No Iterations 8
diagonal:  Solving for rho, Initial residual = 0, Final residual = 0, No Iterations 0
time step continuity errors : sum local = 3.3344e-10, global = 2.80261e-11, cumulative = -1.51563e-08
smoothSolver:  Solving for k, Initial residual = 0.000244184, Final residual = 1.16665e-07, No Iterations 1
bounding k, min: 0 max: 9.71793 average: 0.104318
ExecutionTime = 402.83 s  ClockTime = 405 s

fieldAverage fieldAverage1 write:
    Calculating averages

Courant Number mean: 0.0491961 max: 0.249987
Time = 0.01394

PIMPLE: Iteration 1
diagonal:  Solving for rho, Initial residual = 0, Final residual = 0, No Iterations 0
smoothSolver:  Solving for Ux, Initial residual = 0.00154406, Final residual = 7.5934e-07, No Iterations 1
smoothSolver:  Solving for Uy, Initial residual = 0.00415078, Final residual = 1.59423e-06, No Iterations 1
smoothSolver:  Solving for e, Initial residual = 0.00786818, Final residual = 2.31078e-06, No Iterations 1
DICPCG:  Solving for p, Initial residual = 0.0802224, Final residual = 4.84944e-07, No Iterations 17
diagonal:  Solving for rho, Initial residual = 0, Final residual = 0, No Iterations 0
time step continuity errors : sum local = 2.11053e-10, global = -4.81631e-12, cumulative = -1.51612e-08
PIMPLE: Iteration 2
smoothSolver:  Solving for Ux, Initial residual = 7.08044e-06, Final residual = 6.05328e-09, No Iterations 1
smoothSolver:  Solving for Uy, Initial residual = 1.24655e-05, Final residual = 8.45609e-09, No Iterations 1
smoothSolver:  Solving for e, Initial residual = 0.00146008, Final residual = 5.90747e-07, No Iterations 1
DICPCG:  Solving for p, Initial residual = 0.00537902, Final residual = 7.56682e-07, No Iterations 13
diagonal:  Solving for rho, Initial residual = 0, Final residual = 0, No Iterations 0
time step continuity errors : sum local = 3.38794e-10, global = -9.14517e-11, cumulative = -1.52526e-08
PIMPLE: Iteration 3
smoothSolver:  Solving for Ux, Initial residual = 9.3964e-07, Final residual = 9.3964e-07, No Iterations 0
smoothSolver:  Solving for Uy, Initial residual = 1.92019e-06, Final residual = 1.27804e-09, No Iterations 1
smoothSolver:  Solving for e, Initial residual = 8.77382e-05, Final residual = 3.60986e-08, No Iterations 1
DICPCG:  Solving for p, Initial residual = 0.000322784, Final residual = 7.15582e-07, No Iterations 8
diagonal:  Solving for rho, Initial residual = 0, Final residual = 0, No Iterations 0
time step continuity errors : sum local = 3.1961e-10, global = 7.84755e-11, cumulative = -1.51741e-08
smoothSolver:  Solving for k, Initial residual = 0.00024431, Final residual = 1.1738e-07, No Iterations 1
bounding k, min: 0 max: 9.72434 average: 0.104321
ExecutionTime = 403.11 s  ClockTime = 406 s

fieldAverage fieldAverage1 write:
    Calculating averages

Courant Number mean: 0.0491784 max: 0.249833
Time = 0.01395

PIMPLE: Iteration 1
diagonal:  Solving for rho, Initial residual = 0, Final residual = 0, No Iterations 0
smoothSolver:  Solving for Ux, Initial residual = 0.00152031, Final residual = 7.18559e-07, No Iterations 1
smoothSolver:  Solving for Uy, Initial residual = 0.00470997, Final residual = 1.641e-06, No Iterations 1
smoothSolver:  Solving for e, Initial residual = 0.00750175, Final residual = 2.30153e-06, No Iterations 1
DICPCG:  Solving for p, Initial residual = 0.0703276, Final residual = 4.8274e-07, No Iterations 17
diagonal:  Solving for rho, Initial residual = 0, Final residual = 0, No Iterations 0
time step continuity errors : sum local = 2.21011e-10, global = -1.37813e-11, cumulative = -1.51879e-08
PIMPLE: Iteration 2
smoothSolver:  Solving for Ux, Initial residual = 7.04208e-06, Final residual = 5.87367e-09, No Iterations 1
smoothSolver:  Solving for Uy, Initial residual = 1.28748e-05, Final residual = 8.71835e-09, No Iterations 1
smoothSolver:  Solving for e, Initial residual = 0.00145803, Final residual = 5.82972e-07, No Iterations 1
DICPCG:  Solving for p, Initial residual = 0.00514603, Final residual = 5.28261e-07, No Iterations 13
diagonal:  Solving for rho, Initial residual = 0, Final residual = 0, No Iterations 0
time step continuity errors : sum local = 2.47132e-10, global = -3.9382e-11, cumulative = -1.52273e-08
PIMPLE: Iteration 3
smoothSolver:  Solving for Ux, Initial residual = 8.61788e-07, Final residual = 8.61788e-07, No Iterations 0
smoothSolver:  Solving for Uy, Initial residual = 1.46548e-06, Final residual = 1.12717e-09, No Iterations 1
smoothSolver:  Solving for e, Initial residual = 8.91275e-05, Final residual = 3.93528e-08, No Iterations 1
DICPCG:  Solving for p, Initial residual = 0.000313532, Final residual = 6.54657e-07, No Iterations 8
diagonal:  Solving for rho, Initial residual = 0, Final residual = 0, No Iterations 0
time step continuity errors : sum local = 3.05451e-10, global = 9.40857e-11, cumulative = -1.51332e-08
smoothSolver:  Solving for k, Initial residual = 0.000242814, Final residual = 1.18351e-07, No Iterations 1
bounding k, min: 0 max: 9.73244 average: 0.104325
ExecutionTime = 403.39 s  ClockTime = 406 s

fieldAverage fieldAverage1 write:
    Calculating averages

Courant Number mean: 0.049161 max: 0.249592
Time = 0.01396

PIMPLE: Iteration 1
diagonal:  Solving for rho, Initial residual = 0, Final residual = 0, No Iterations 0
smoothSolver:  Solving for Ux, Initial residual = 0.00151198, Final residual = 6.80826e-07, No Iterations 1
smoothSolver:  Solving for Uy, Initial residual = 0.00507663, Final residual = 1.52878e-06, No Iterations 1
smoothSolver:  Solving for e, Initial residual = 0.00714027, Final residual = 2.34389e-06, No Iterations 1
DICPCG:  Solving for p, Initial residual = 0.0624425, Final residual = 9.31704e-07, No Iterations 16
diagonal:  Solving for rho, Initial residual = 0, Final residual = 0, No Iterations 0
time step continuity errors : sum local = 4.4481e-10, global = -2.55287e-11, cumulative = -1.51587e-08
PIMPLE: Iteration 2
smoothSolver:  Solving for Ux, Initial residual = 6.88554e-06, Final residual = 6.03078e-09, No Iterations 1
smoothSolver:  Solving for Uy, Initial residual = 1.31346e-05, Final residual = 9.67225e-09, No Iterations 1
smoothSolver:  Solving for e, Initial residual = 0.00147084, Final residual = 5.65152e-07, No Iterations 1
DICPCG:  Solving for p, Initial residual = 0.00500349, Final residual = 7.99937e-07, No Iterations 12
diagonal:  Solving for rho, Initial residual = 0, Final residual = 0, No Iterations 0
time step continuity errors : sum local = 3.89536e-10, global = -2.00839e-11, cumulative = -1.51788e-08
PIMPLE: Iteration 3
smoothSolver:  Solving for Ux, Initial residual = 8.27435e-07, Final residual = 8.27435e-07, No Iterations 0
smoothSolver:  Solving for Uy, Initial residual = 1.6241e-06, Final residual = 1.15239e-09, No Iterations 1
smoothSolver:  Solving for e, Initial residual = 8.01154e-05, Final residual = 3.80622e-08, No Iterations 1
DICPCG:  Solving for p, Initial residual = 0.000273673, Final residual = 7.44676e-07, No Iterations 8
diagonal:  Solving for rho, Initial residual = 0, Final residual = 0, No Iterations 0
time step continuity errors : sum local = 3.61707e-10, global = 1.13587e-10, cumulative = -1.50652e-08
smoothSolver:  Solving for k, Initial residual = 0.000242521, Final residual = 1.19617e-07, No Iterations 1
bounding k, min: 0 max: 9.74077 average: 0.104332
ExecutionTime = 403.66 s  ClockTime = 406 s

fieldAverage fieldAverage1 write:
    Calculating averages

Courant Number mean: 0.049149 max: 0.249276
Time = 0.01397

PIMPLE: Iteration 1
diagonal:  Solving for rho, Initial residual = 0, Final residual = 0, No Iterations 0
smoothSolver:  Solving for Ux, Initial residual = 0.00148791, Final residual = 6.43249e-07, No Iterations 1
smoothSolver:  Solving for Uy, Initial residual = 0.00537619, Final residual = 1.35486e-06, No Iterations 1
smoothSolver:  Solving for e, Initial residual = 0.0067551, Final residual = 2.40241e-06, No Iterations 1
DICPCG:  Solving for p, Initial residual = 0.0553052, Final residual = 9.58651e-07, No Iterations 16
diagonal:  Solving for rho, Initial residual = 0, Final residual = 0, No Iterations 0
time step continuity errors : sum local = 4.73819e-10, global = -4.35635e-11, cumulative = -1.51088e-08
PIMPLE: Iteration 2
smoothSolver:  Solving for Ux, Initial residual = 7.13819e-06, Final residual = 6.57626e-09, No Iterations 1
smoothSolver:  Solving for Uy, Initial residual = 1.32918e-05, Final residual = 1.0993e-08, No Iterations 1
smoothSolver:  Solving for e, Initial residual = 0.00149056, Final residual = 5.91463e-07, No Iterations 1
DICPCG:  Solving for p, Initial residual = 0.00493799, Final residual = 5.91412e-07, No Iterations 13
diagonal:  Solving for rho, Initial residual = 0, Final residual = 0, No Iterations 0
time step continuity errors : sum local = 2.96505e-10, global = 2.64734e-11, cumulative = -1.50823e-08
PIMPLE: Iteration 3
smoothSolver:  Solving for Ux, Initial residual = 8.02228e-07, Final residual = 8.02228e-07, No Iterations 0
smoothSolver:  Solving for Uy, Initial residual = 1.64031e-06, Final residual = 1.14105e-09, No Iterations 1
smoothSolver:  Solving for e, Initial residual = 7.3006e-05, Final residual = 3.81681e-08, No Iterations 1
DICPCG:  Solving for p, Initial residual = 0.000243074, Final residual = 6.77142e-07, No Iterations 8
diagonal:  Solving for rho, Initial residual = 0, Final residual = 0, No Iterations 0
time step continuity errors : sum local = 3.38563e-10, global = 1.39409e-10, cumulative = -1.49429e-08
smoothSolver:  Solving for k, Initial residual = 0.000242879, Final residual = 1.20566e-07, No Iterations 1
bounding k, min: 0 max: 9.74613 average: 0.104342
ExecutionTime = 403.94 s  ClockTime = 406 s

fieldAverage fieldAverage1 write:
    Calculating averages

Courant Number mean: 0.0491438 max: 0.248911
Time = 0.01398

PIMPLE: Iteration 1
diagonal:  Solving for rho, Initial residual = 0, Final residual = 0, No Iterations 0
smoothSolver:  Solving for Ux, Initial residual = 0.00149108, Final residual = 6.43526e-07, No Iterations 1
smoothSolver:  Solving for Uy, Initial residual = 0.00570591, Final residual = 1.29596e-06, No Iterations 1
smoothSolver:  Solving for e, Initial residual = 0.00630595, Final residual = 2.45578e-06, No Iterations 1
DICPCG:  Solving for p, Initial residual = 0.0513853, Final residual = 7.80695e-07, No Iterations 16
diagonal:  Solving for rho, Initial residual = 0, Final residual = 0, No Iterations 0
time step continuity errors : sum local = 3.93454e-10, global = -7.21173e-11, cumulative = -1.5015e-08
PIMPLE: Iteration 2
smoothSolver:  Solving for Ux, Initial residual = 7.37931e-06, Final residual = 6.97119e-09, No Iterations 1
smoothSolver:  Solving for Uy, Initial residual = 1.25194e-05, Final residual = 1.13648e-08, No Iterations 1
smoothSolver:  Solving for e, Initial residual = 0.00151938, Final residual = 6.14915e-07, No Iterations 1
DICPCG:  Solving for p, Initial residual = 0.00497305, Final residual = 5.61144e-07, No Iterations 13
diagonal:  Solving for rho, Initial residual = 0, Final residual = 0, No Iterations 0
time step continuity errors : sum local = 2.84189e-10, global = -3.27889e-12, cumulative = -1.50183e-08
PIMPLE: Iteration 3
smoothSolver:  Solving for Ux, Initial residual = 8.51934e-07, Final residual = 8.51934e-07, No Iterations 0
smoothSolver:  Solving for Uy, Initial residual = 1.77294e-06, Final residual = 1.18723e-09, No Iterations 1
smoothSolver:  Solving for e, Initial residual = 8.82521e-05, Final residual = 4.3933e-08, No Iterations 1
DICPCG:  Solving for p, Initial residual = 0.000290358, Final residual = 6.32042e-07, No Iterations 8
diagonal:  Solving for rho, Initial residual = 0, Final residual = 0, No Iterations 0
time step continuity errors : sum local = 3.19192e-10, global = 7.05712e-11, cumulative = -1.49477e-08
smoothSolver:  Solving for k, Initial residual = 0.000239695, Final residual = 1.2073e-07, No Iterations 1
bounding k, min: 0 max: 9.7436 average: 0.104354
ExecutionTime = 404.2 s  ClockTime = 407 s

fieldAverage fieldAverage1 write:
    Calculating averages

Courant Number mean: 0.0491449 max: 0.248528
Time = 0.01399

PIMPLE: Iteration 1
diagonal:  Solving for rho, Initial residual = 0, Final residual = 0, No Iterations 0
smoothSolver:  Solving for Ux, Initial residual = 0.00149929, Final residual = 6.79083e-07, No Iterations 1
smoothSolver:  Solving for Uy, Initial residual = 0.0058343, Final residual = 1.3806e-06, No Iterations 1
smoothSolver:  Solving for e, Initial residual = 0.00613696, Final residual = 2.54205e-06, No Iterations 1
DICPCG:  Solving for p, Initial residual = 0.0519356, Final residual = 8.14924e-07, No Iterations 16
diagonal:  Solving for rho, Initial residual = 0, Final residual = 0, No Iterations 0
time step continuity errors : sum local = 4.11539e-10, global = 5.53895e-11, cumulative = -1.48923e-08
PIMPLE: Iteration 2
smoothSolver:  Solving for Ux, Initial residual = 7.56337e-06, Final residual = 6.80442e-09, No Iterations 1
smoothSolver:  Solving for Uy, Initial residual = 1.30509e-05, Final residual = 1.15793e-08, No Iterations 1
smoothSolver:  Solving for e, Initial residual = 0.00149405, Final residual = 5.96901e-07, No Iterations 1
DICPCG:  Solving for p, Initial residual = 0.00492447, Final residual = 5.31136e-07, No Iterations 13
diagonal:  Solving for rho, Initial residual = 0, Final residual = 0, No Iterations 0
time step continuity errors : sum local = 2.67452e-10, global = -6.3498e-12, cumulative = -1.48987e-08
PIMPLE: Iteration 3
smoothSolver:  Solving for Ux, Initial residual = 9.06395e-07, Final residual = 9.06395e-07, No Iterations 0
smoothSolver:  Solving for Uy, Initial residual = 1.6803e-06, Final residual = 1.18321e-09, No Iterations 1
smoothSolver:  Solving for e, Initial residual = 9.49787e-05, Final residual = 4.38886e-08, No Iterations 1
DICPCG:  Solving for p, Initial residual = 0.000313661, Final residual = 7.22087e-07, No Iterations 8
diagonal:  Solving for rho, Initial residual = 0, Final residual = 0, No Iterations 0
time step continuity errors : sum local = 3.6262e-10, global = -1.91182e-11, cumulative = -1.49178e-08
smoothSolver:  Solving for k, Initial residual = 0.000239836, Final residual = 1.21393e-07, No Iterations 1
bounding k, min: 0 max: 9.73404 average: 0.104366
ExecutionTime = 404.47 s  ClockTime = 407 s

fieldAverage fieldAverage1 write:
    Calculating averages

Courant Number mean: 0.0491488 max: 0.248159
Time = 0.014

PIMPLE: Iteration 1
diagonal:  Solving for rho, Initial residual = 0, Final residual = 0, No Iterations 0
smoothSolver:  Solving for Ux, Initial residual = 0.00149161, Final residual = 7.25797e-07, No Iterations 1
smoothSolver:  Solving for Uy, Initial residual = 0.00569268, Final residual = 1.51695e-06, No Iterations 1
smoothSolver:  Solving for e, Initial residual = 0.0062732, Final residual = 2.6358e-06, No Iterations 1
DICPCG:  Solving for p, Initial residual = 0.0555237, Final residual = 9.4345e-07, No Iterations 16
diagonal:  Solving for rho, Initial residual = 0, Final residual = 0, No Iterations 0
time step continuity errors : sum local = 4.71824e-10, global = 4.62706e-11, cumulative = -1.48715e-08
PIMPLE: Iteration 2
smoothSolver:  Solving for Ux, Initial residual = 7.19915e-06, Final residual = 6.72803e-09, No Iterations 1
smoothSolver:  Solving for Uy, Initial residual = 1.29049e-05, Final residual = 1.11719e-08, No Iterations 1
smoothSolver:  Solving for e, Initial residual = 0.00144766, Final residual = 5.93193e-07, No Iterations 1
DICPCG:  Solving for p, Initial residual = 0.00485488, Final residual = 6.99851e-07, No Iterations 13
diagonal:  Solving for rho, Initial residual = 0, Final residual = 0, No Iterations 0
time step continuity errors : sum local = 3.47314e-10, global = 4.51099e-11, cumulative = -1.48264e-08
PIMPLE: Iteration 3
smoothSolver:  Solving for Ux, Initial residual = 9.05829e-07, Final residual = 9.05829e-07, No Iterations 0
smoothSolver:  Solving for Uy, Initial residual = 1.6992e-06, Final residual = 1.26563e-09, No Iterations 1
smoothSolver:  Solving for e, Initial residual = 9.44136e-05, Final residual = 3.94099e-08, No Iterations 1
DICPCG:  Solving for p, Initial residual = 0.000314466, Final residual = 6.40653e-07, No Iterations 8
diagonal:  Solving for rho, Initial residual = 0, Final residual = 0, No Iterations 0
time step continuity errors : sum local = 3.17054e-10, global = -5.56638e-11, cumulative = -1.48821e-08
smoothSolver:  Solving for k, Initial residual = 0.000241062, Final residual = 1.21222e-07, No Iterations 1
bounding k, min: 0 max: 9.72307 average: 0.104378
ExecutionTime = 405.54 s  ClockTime = 408 s

fieldAverage fieldAverage1 write:
    Calculating averages

    Writing average fields


Courant Number mean: 0.0491512 max: 0.247824
Time = 0.01401

PIMPLE: Iteration 1
diagonal:  Solving for rho, Initial residual = 0, Final residual = 0, No Iterations 0
smoothSolver:  Solving for Ux, Initial residual = 0.0014882, Final residual = 7.63645e-07, No Iterations 1
smoothSolver:  Solving for Uy, Initial residual = 0.00543456, Final residual = 1.67579e-06, No Iterations 1
smoothSolver:  Solving for e, Initial residual = 0.00652116, Final residual = 2.64139e-06, No Iterations 1
DICPCG:  Solving for p, Initial residual = 0.0605663, Final residual = 7.55641e-07, No Iterations 16
diagonal:  Solving for rho, Initial residual = 0, Final residual = 0, No Iterations 0
time step continuity errors : sum local = 3.73498e-10, global = -1.03115e-11, cumulative = -1.48924e-08
PIMPLE: Iteration 2
smoothSolver:  Solving for Ux, Initial residual = 7.38351e-06, Final residual = 7.43375e-09, No Iterations 1
smoothSolver:  Solving for Uy, Initial residual = 1.33804e-05, Final residual = 1.06459e-08, No Iterations 1
smoothSolver:  Solving for e, Initial residual = 0.00133878, Final residual = 6.48776e-07, No Iterations 1
DICPCG:  Solving for p, Initial residual = 0.0045392, Final residual = 6.20136e-07, No Iterations 13
diagonal:  Solving for rho, Initial residual = 0, Final residual = 0, No Iterations 0
time step continuity errors : sum local = 3.04722e-10, global = 5.74877e-11, cumulative = -1.48349e-08
PIMPLE: Iteration 3
smoothSolver:  Solving for Ux, Initial residual = 8.38075e-07, Final residual = 8.38075e-07, No Iterations 0
smoothSolver:  Solving for Uy, Initial residual = 1.4826e-06, Final residual = 1.34358e-09, No Iterations 1
smoothSolver:  Solving for e, Initial residual = 7.78741e-05, Final residual = 4.0853e-08, No Iterations 1
DICPCG:  Solving for p, Initial residual = 0.000263816, Final residual = 5.72282e-07, No Iterations 8
