/*---------------------------------------------------------------------------*\
  =========                 |
  \\      /  F ield         | OpenFOAM: The Open Source CFD Toolbox
   \\    /   O peration     | Website:  https://openfoam.org
    \\  /    A nd           | Version:  7
     \\/     M anipulation  |
\*---------------------------------------------------------------------------*/
Build  : 7-49b2b3b8b082
Exec   : checkMesh
Date   : Mar 23 2023
Time   : 13:29:31
Host   : "c411-063.stampede2.tacc.utexas.edu"
PID    : 142702
I/O    : uncollated
Case   : /home1/08376/lew2547/CooliestModel/src/CFD/LES/pitzDaily
nProcs : 1
sigFpe : Enabling floating point exception trapping (FOAM_SIGFPE).
fileModificationChecking : Monitoring run-time modified files using timeStampMaster (fileModificationSkew 10)
allowSystemOperations : Allowing user-supplied system call operations

// * * * * * * * * * * * * * * * * * * * * * * * * * * * * * * * * * * * * * //
Create time

Create polyMesh for time = 0

Time = 0

Mesh stats
    points:           25012
    internal points:  0
    faces:            49180
    internal faces:   24170
    cells:            12225
    faces per cell:   6
    boundary patches: 5
    point zones:      0
    face zones:       0
    cell zones:       0

Overall number of cells of each type:
    hexahedra:     12225
    prisms:        0
    wedges:        0
    pyramids:      0
    tet wedges:    0
    tetrahedra:    0
    polyhedra:     0

Checking topology...
    Boundary definition OK.
    Cell to face addressing OK.
    Point usage OK.
    Upper triangular ordering OK.
    Face vertices OK.
    Number of regions: 1 (OK).

Checking patch topology for multiply connected surfaces...
    Patch               Faces    Points   Surface topology                  
    inlet               30       62       ok (non-closed singly connected)  
    outlet              57       116      ok (non-closed singly connected)  
    upperWall           223      448      ok (non-closed singly connected)  
    lowerWall           250      502      ok (non-closed singly connected)  
    frontAndBack        24450    25012    ok (non-closed singly connected)  

Checking geometry...
    Overall domain bounding box (-0.0206 -0.0254 -0.0005) (0.29 0.0254 0.0005)
    Mesh has 2 geometric (non-empty/wedge) directions (1 1 0)
    Mesh has 2 solution (non-empty) directions (1 1 0)
    All edges aligned with or perpendicular to non-empty directions.
    Boundary openness (-1.74458e-19 3.10465e-18 2.11177e-15) OK.
    Max cell openness = 2.21044e-16 OK.
    Max aspect ratio = 8.1407 OK.
    Minimum face area = 1.68589e-07. Maximum face area = 5.14451e-06.  Face area magnitudes OK.
    Min volume = 1.6902e-10. Max volume = 3.83579e-09.  Total volume = 1.4516e-05.  Cell volumes OK.
    Mesh non-orthogonality Max: 5.95045 average: 1.63034
    Non-orthogonality check OK.
    Face pyramids OK.
    Max skewness = 0.260575 OK.
    Coupled point location match (average 0) OK.

Mesh OK.

End

