/*---------------------------------------------------------------------------*\
  =========                 |
  \\      /  F ield         | OpenFOAM: The Open Source CFD Toolbox
   \\    /   O peration     | Website:  https://openfoam.org
    \\  /    A nd           | Version:  7
     \\/     M anipulation  |
\*---------------------------------------------------------------------------*/
Build  : 7-49b2b3b8b082
Exec   : checkMesh
Date   : Apr 13 2023
Time   : 14:12:18
Host   : "c450-013.stampede2.tacc.utexas.edu"
PID    : 161161
I/O    : uncollated
Case   : /home1/07645/eesha_n/SeniorDesign/CooliestModel/src/CFD/ConvergenceStudy/pipe_validation_2
nProcs : 1
sigFpe : Enabling floating point exception trapping (FOAM_SIGFPE).
fileModificationChecking : Monitoring run-time modified files using timeStampMaster (fileModificationSkew 10)
allowSystemOperations : Allowing user-supplied system call operations

// * * * * * * * * * * * * * * * * * * * * * * * * * * * * * * * * * * * * * //
Create time

Create polyMesh for time = 0

Time = 0

Mesh stats
    points:           4329
    faces:            9484
    internal faces:   6356
    cells:            2640
    faces per cell:   6
    boundary patches: 6
    point zones:      0
    face zones:       0
    cell zones:       0

Overall number of cells of each type:
    hexahedra:     2640
    prisms:        0
    wedges:        0
    pyramids:      0
    tet wedges:    0
    tetrahedra:    0
    polyhedra:     0

Checking topology...
    Boundary definition OK.
    Cell to face addressing OK.
    Point usage OK.
    Upper triangular ordering OK.
    Face vertices OK.
    Number of regions: 1 (OK).

Checking patch topology for multiply connected surfaces...
    Patch               Faces    Points   Surface topology                  
    upperWall           220      333      ok (non-closed singly connected)  
    lowerWall           40       63       ok (non-closed singly connected)  
    heatedWall          180      273      ok (non-closed singly connected)  
    inlet               24       39       ok (non-closed singly connected)  
    outlet              24       39       ok (non-closed singly connected)  
    frontAndBack        2640     2886     ok (non-closed singly connected)  

Checking geometry...
    Overall domain bounding box (0 0 -0.15) (19.2 0.2 0)
    Mesh has 2 geometric (non-empty/wedge) directions (1 1 0)
    Mesh has 2 solution (non-empty) directions (1 1 0)
    All edges aligned with or perpendicular to non-empty directions.
    Boundary openness (-6.4249e-20 -4.14663e-16 -1.75689e-16) OK.
    Max cell openness = 1.0842e-16 OK.
    Max aspect ratio = 12 OK.
    Minimum face area = 0.001. Maximum face area = 0.015.  Face area magnitudes OK.
    Min volume = 7.5e-05. Max volume = 0.00025.  Total volume = 0.576.  Cell volumes OK.
    Mesh non-orthogonality Max: 0 average: 0
    Non-orthogonality check OK.
    Face pyramids OK.
    Max skewness = 7.10543e-14 OK.
    Coupled point location match (average 0) OK.

Mesh OK.

End

