/*---------------------------------------------------------------------------*\
  =========                 |
  \\      /  F ield         | OpenFOAM: The Open Source CFD Toolbox
   \\    /   O peration     | Website:  https://openfoam.org
    \\  /    A nd           | Version:  7
     \\/     M anipulation  |
\*---------------------------------------------------------------------------*/
Build  : 7-49b2b3b8b082
Exec   : rhoPimpleFoam
Date   : Apr 06 2023
Time   : 14:40:52
Host   : "c424-023.stampede2.tacc.utexas.edu"
PID    : 238575
I/O    : uncollated
Case   : /home1/07645/eesha_n/SeniorDesign/CooliestModel/src/CFD/circuit_validation
nProcs : 1
sigFpe : Enabling floating point exception trapping (FOAM_SIGFPE).
fileModificationChecking : Monitoring run-time modified files using timeStampMaster (fileModificationSkew 10)
allowSystemOperations : Allowing user-supplied system call operations

// * * * * * * * * * * * * * * * * * * * * * * * * * * * * * * * * * * * * * //
Create time

Create mesh for time = 0


PIMPLE: No convergence criteria found


PIMPLE: No corrector convergence criteria found
        Calculations will do 3 corrections


PIMPLE: Operating solver in transient mode with 3 outer correctors


Reading thermophysical properties

Selecting thermodynamics package 
{
    type            hePsiThermo;
    mixture         pureMixture;
    transport       const;
    thermo          eConst;
    equationOfState perfectGas;
    specie          specie;
    energy          sensibleInternalEnergy;
}

--> FOAM Warning : 
    From function Foam::Field<Type>::Field(const Foam::word &, const Foam::dictionary &, int) [with Type = double]
    in file /home1/apps/intel18/impi18_0/OpenFOAM/OpenFOAM-7/src/OpenFOAM/lnInclude/Field.C at line 235
    Reading "/home1/07645/eesha_n/SeniorDesign/CooliestModel/src/CFD/circuit_validation/0/T.boundaryField.lowerWall" from line 44 to line 19
    expected keyword 'uniform' or 'nonuniform', assuming deprecated Field format from Foam version 2.0.
Reading field U

Reading/calculating face flux field phi

pressureControl
    pMax 200000
    pMin 50000

Creating turbulence model

Selecting turbulence model type LES
Selecting LES turbulence model kEqn
Selecting LES delta type cubeRootVol
--> FOAM Warning : 
    From function void Foam::LESModels::cubeRootVolDelta::calcDelta()
    in file LES/LESdeltas/cubeRootVolDelta/cubeRootVolDelta.C at line 55
    Case is 2D, LES is not strictly applicable

bounding k, min: 0 max: 2e-05 average: 0
LES
{
    LESModel        kEqn;
    turbulence      on;
    printCoeffs     on;
    delta           cubeRootVol;
    cubeRootVolCoeffs
    {
        deltaCoeff      1;
    }
    PrandtlCoeffs
    {
        delta           cubeRootVol;
        cubeRootVolCoeffs
        {
            deltaCoeff      1;
        }
        smoothCoeffs
        {
            delta           cubeRootVol;
            cubeRootVolCoeffs
            {
                deltaCoeff      1;
            }
            maxDeltaRatio   1.1;
        }
        Cdelta          0.158;
    }
    vanDriestCoeffs
    {
        delta           cubeRootVol;
        cubeRootVolCoeffs
        {
            deltaCoeff      1;
        }
        smoothCoeffs
        {
            delta           cubeRootVol;
            cubeRootVolCoeffs
            {
                deltaCoeff      1;
            }
            maxDeltaRatio   1.1;
        }
        Aplus           26;
        Cdelta          0.158;
    }
    smoothCoeffs
    {
        delta           cubeRootVol;
        cubeRootVolCoeffs
        {
            deltaCoeff      1;
        }
        maxDeltaRatio   1.1;
    }
    Ce              1.048;
    Ck              0.094;
}

Creating field dpdt

Creating field kinetic energy K

No MRF models present

No finite volume options present
Courant Number mean: 0.000625 max: 0.075

Starting time loop

Courant Number mean: 0.000625 max: 0.075
Time = 0.005

PIMPLE: Iteration 1
diagonal:  Solving for rho, Initial residual = 0, Final residual = 0, No Iterations 0
smoothSolver:  Solving for Ux, Initial residual = 1, Final residual = 9.13421e-08, No Iterations 1
smoothSolver:  Solving for Uy, Initial residual = 1, Final residual = 4.98116e-08, No Iterations 1
smoothSolver:  Solving for e, Initial residual = 1, Final residual = 2.72613e-07, No Iterations 1
DICPCG:  Solving for p, Initial residual = 1, Final residual = 7.47752e-07, No Iterations 104
diagonal:  Solving for rho, Initial residual = 0, Final residual = 0, No Iterations 0
time step continuity errors : sum local = 9.64481e-10, global = 1.71573e-11, cumulative = 1.71573e-11
PIMPLE: Iteration 2
smoothSolver:  Solving for Ux, Initial residual = 0.121181, Final residual = 0.000171825, No Iterations 1
smoothSolver:  Solving for Uy, Initial residual = 0.384873, Final residual = 5.64e-05, No Iterations 1
smoothSolver:  Solving for e, Initial residual = 0.632881, Final residual = 0.000395805, No Iterations 1
DICPCG:  Solving for p, Initial residual = 0.0797625, Final residual = 8.55532e-07, No Iterations 72
diagonal:  Solving for rho, Initial residual = 0, Final residual = 0, No Iterations 0
time step continuity errors : sum local = 3.82949e-09, global = -3.08684e-10, cumulative = -2.91527e-10
PIMPLE: Iteration 3
smoothSolver:  Solving for Ux, Initial residual = 0.0036001, Final residual = 1.34316e-09, No Iterations 2
smoothSolver:  Solving for Uy, Initial residual = 0.00682534, Final residual = 2.4089e-09, No Iterations 2
smoothSolver:  Solving for e, Initial residual = 0.373245, Final residual = 7.02298e-08, No Iterations 2
DICPCG:  Solving for p, Initial residual = 0.104518, Final residual = 8.97461e-07, No Iterations 69
diagonal:  Solving for rho, Initial residual = 0, Final residual = 0, No Iterations 0
time step continuity errors : sum local = 3.83741e-09, global = -4.78419e-10, cumulative = -7.69947e-10
smoothSolver:  Solving for k, Initial residual = 0.953615, Final residual = 5.73916e-09, No Iterations 3
bounding k, min: 0 max: 0.000441221 average: 7.05478e-07
ExecutionTime = 0.34 s  ClockTime = 1 s

Courant Number mean: 0.00992909 max: 0.14705
Time = 0.01

PIMPLE: Iteration 1
diagonal:  Solving for rho, Initial residual = 0, Final residual = 0, No Iterations 0
smoothSolver:  Solving for Ux, Initial residual = 0.310851, Final residual = 0.000214918, No Iterations 1
smoothSolver:  Solving for Uy, Initial residual = 0.673313, Final residual = 4.63947e-05, No Iterations 1
smoothSolver:  Solving for e, Initial residual = 0.330183, Final residual = 0.000208513, No Iterations 1
DICPCG:  Solving for p, Initial residual = 0.574187, Final residual = 9.25434e-07, No Iterations 80
diagonal:  Solving for rho, Initial residual = 0, Final residual = 0, No Iterations 0
time step continuity errors : sum local = 5.17422e-09, global = 3.80082e-10, cumulative = -3.89865e-10
PIMPLE: Iteration 2
smoothSolver:  Solving for Ux, Initial residual = 0.00312428, Final residual = 5.47225e-06, No Iterations 1
smoothSolver:  Solving for Uy, Initial residual = 0.00500608, Final residual = 7.2077e-06, No Iterations 1
smoothSolver:  Solving for e, Initial residual = 0.172294, Final residual = 0.000227897, No Iterations 1
DICPCG:  Solving for p, Initial residual = 0.0444669, Final residual = 8.66439e-07, No Iterations 67
diagonal:  Solving for rho, Initial residual = 0, Final residual = 0, No Iterations 0
time step continuity errors : sum local = 7.90953e-09, global = 6.66144e-10, cumulative = 2.76279e-10
PIMPLE: Iteration 3
smoothSolver:  Solving for Ux, Initial residual = 0.000851316, Final residual = 2.12906e-09, No Iterations 2
smoothSolver:  Solving for Uy, Initial residual = 0.000596861, Final residual = 7.82338e-07, No Iterations 1
smoothSolver:  Solving for e, Initial residual = 0.0398087, Final residual = 1.06881e-07, No Iterations 2
DICPCG:  Solving for p, Initial residual = 0.0101536, Final residual = 8.97135e-07, No Iterations 56
diagonal:  Solving for rho, Initial residual = 0, Final residual = 0, No Iterations 0
time step continuity errors : sum local = 8.08265e-09, global = -6.50789e-10, cumulative = -3.7451e-10
smoothSolver:  Solving for k, Initial residual = 0.913369, Final residual = 3.48784e-09, No Iterations 3
bounding k, min: 0 max: 0.00986479 average: 2.97344e-05
ExecutionTime = 0.42 s  ClockTime = 1 s

Courant Number mean: 0.0224531 max: 0.157517
Time = 0.015

PIMPLE: Iteration 1
diagonal:  Solving for rho, Initial residual = 0, Final residual = 0, No Iterations 0
smoothSolver:  Solving for Ux, Initial residual = 0.195114, Final residual = 0.000179478, No Iterations 1
smoothSolver:  Solving for Uy, Initial residual = 0.552489, Final residual = 0.000136523, No Iterations 1
smoothSolver:  Solving for e, Initial residual = 0.215713, Final residual = 0.000184883, No Iterations 1
DICPCG:  Solving for p, Initial residual = 0.236684, Final residual = 9.98753e-07, No Iterations 74
diagonal:  Solving for rho, Initial residual = 0, Final residual = 0, No Iterations 0
time step continuity errors : sum local = 1.00846e-08, global = 5.51143e-10, cumulative = 1.76633e-10
PIMPLE: Iteration 2
smoothSolver:  Solving for Ux, Initial residual = 0.00181275, Final residual = 3.64315e-06, No Iterations 1
smoothSolver:  Solving for Uy, Initial residual = 0.00564117, Final residual = 1.00232e-05, No Iterations 1
smoothSolver:  Solving for e, Initial residual = 0.103567, Final residual = 0.000149857, No Iterations 1
DICPCG:  Solving for p, Initial residual = 0.0255837, Final residual = 9.48638e-07, No Iterations 62
diagonal:  Solving for rho, Initial residual = 0, Final residual = 0, No Iterations 0
time step continuity errors : sum local = 1.25175e-08, global = 1.43686e-09, cumulative = 1.61349e-09
PIMPLE: Iteration 3
smoothSolver:  Solving for Ux, Initial residual = 0.000403621, Final residual = 6.94385e-07, No Iterations 1
smoothSolver:  Solving for Uy, Initial residual = 0.00156152, Final residual = 7.38976e-09, No Iterations 2
smoothSolver:  Solving for e, Initial residual = 0.0199567, Final residual = 7.07062e-08, No Iterations 2
DICPCG:  Solving for p, Initial residual = 0.00498868, Final residual = 8.6083e-07, No Iterations 51
diagonal:  Solving for rho, Initial residual = 0, Final residual = 0, No Iterations 0
time step continuity errors : sum local = 1.12346e-08, global = -1.19925e-09, cumulative = 4.14247e-10
smoothSolver:  Solving for k, Initial residual = 0.812869, Final residual = 8.32741e-09, No Iterations 3
bounding k, min: 0 max: 0.106883 average: 0.000524054
ExecutionTime = 0.48 s  ClockTime = 1 s

Courant Number mean: 0.036097 max: 0.16019
Time = 0.02

PIMPLE: Iteration 1
diagonal:  Solving for rho, Initial residual = 0, Final residual = 0, No Iterations 0
smoothSolver:  Solving for Ux, Initial residual = 0.157026, Final residual = 0.000157357, No Iterations 1
smoothSolver:  Solving for Uy, Initial residual = 0.146266, Final residual = 0.000133323, No Iterations 1
smoothSolver:  Solving for e, Initial residual = 0.167356, Final residual = 0.000157396, No Iterations 1
DICPCG:  Solving for p, Initial residual = 0.166691, Final residual = 9.54439e-07, No Iterations 71
diagonal:  Solving for rho, Initial residual = 0, Final residual = 0, No Iterations 0
time step continuity errors : sum local = 1.32682e-08, global = 2.71965e-10, cumulative = 6.86212e-10
PIMPLE: Iteration 2
smoothSolver:  Solving for Ux, Initial residual = 0.00144382, Final residual = 2.85941e-06, No Iterations 1
smoothSolver:  Solving for Uy, Initial residual = 0.00935265, Final residual = 1.84069e-05, No Iterations 1
smoothSolver:  Solving for e, Initial residual = 0.0756433, Final residual = 0.000118838, No Iterations 1
DICPCG:  Solving for p, Initial residual = 0.0188238, Final residual = 7.98923e-07, No Iterations 58
diagonal:  Solving for rho, Initial residual = 0, Final residual = 0, No Iterations 0
time step continuity errors : sum local = 1.30282e-08, global = 1.32819e-09, cumulative = 2.0144e-09
PIMPLE: Iteration 3
smoothSolver:  Solving for Ux, Initial residual = 0.000285203, Final residual = 5.54181e-07, No Iterations 1
smoothSolver:  Solving for Uy, Initial residual = 0.00200968, Final residual = 9.725e-09, No Iterations 2
smoothSolver:  Solving for e, Initial residual = 0.0126236, Final residual = 5.71158e-08, No Iterations 2
DICPCG:  Solving for p, Initial residual = 0.00317276, Final residual = 8.21826e-07, No Iterations 47
diagonal:  Solving for rho, Initial residual = 0, Final residual = 0, No Iterations 0
time step continuity errors : sum local = 1.32726e-08, global = -4.00949e-10, cumulative = 1.61345e-09
smoothSolver:  Solving for k, Initial residual = 0.649116, Final residual = 8.98535e-09, No Iterations 3
bounding k, min: 0 max: 0.464029 average: 0.00419098
ExecutionTime = 0.56 s  ClockTime = 1 s

Courant Number mean: 0.0501751 max: 0.162608
Time = 0.025

PIMPLE: Iteration 1
diagonal:  Solving for rho, Initial residual = 0, Final residual = 0, No Iterations 0
smoothSolver:  Solving for Ux, Initial residual = 0.13882, Final residual = 0.000143946, No Iterations 1
smoothSolver:  Solving for Uy, Initial residual = 0.223822, Final residual = 0.000291828, No Iterations 1
smoothSolver:  Solving for e, Initial residual = 0.147837, Final residual = 0.000148659, No Iterations 1
DICPCG:  Solving for p, Initial residual = 0.134406, Final residual = 9.51599e-07, No Iterations 67
diagonal:  Solving for rho, Initial residual = 0, Final residual = 0, No Iterations 0
time step continuity errors : sum local = 1.59179e-08, global = 1.62189e-10, cumulative = 1.77564e-09
PIMPLE: Iteration 2
smoothSolver:  Solving for Ux, Initial residual = 0.00122554, Final residual = 2.4846e-06, No Iterations 1
smoothSolver:  Solving for Uy, Initial residual = 0.010854, Final residual = 2.06528e-05, No Iterations 1
smoothSolver:  Solving for e, Initial residual = 0.063351, Final residual = 0.00010068, No Iterations 1
DICPCG:  Solving for p, Initial residual = 0.0155934, Final residual = 9.57424e-07, No Iterations 54
diagonal:  Solving for rho, Initial residual = 0, Final residual = 0, No Iterations 0
time step continuity errors : sum local = 1.75956e-08, global = 1.57996e-09, cumulative = 3.35559e-09
PIMPLE: Iteration 3
smoothSolver:  Solving for Ux, Initial residual = 0.000234704, Final residual = 4.70112e-07, No Iterations 1
smoothSolver:  Solving for Uy, Initial residual = 0.00238473, Final residual = 1.21509e-08, No Iterations 2
smoothSolver:  Solving for e, Initial residual = 0.00885995, Final residual = 3.97436e-08, No Iterations 2
DICPCG:  Solving for p, Initial residual = 0.0021968, Final residual = 8.54229e-07, No Iterations 45
diagonal:  Solving for rho, Initial residual = 0, Final residual = 0, No Iterations 0
time step continuity errors : sum local = 1.5555e-08, global = -7.72716e-10, cumulative = 2.58288e-09
smoothSolver:  Solving for k, Initial residual = 0.464444, Final residual = 6.18653e-09, No Iterations 3
bounding k, min: 0 max: 1.11299 average: 0.0176319
ExecutionTime = 0.75 s  ClockTime = 1 s

Courant Number mean: 0.0643743 max: 0.164667
Time = 0.03

PIMPLE: Iteration 1
diagonal:  Solving for rho, Initial residual = 0, Final residual = 0, No Iterations 0
smoothSolver:  Solving for Ux, Initial residual = 0.133493, Final residual = 0.000141516, No Iterations 1
smoothSolver:  Solving for Uy, Initial residual = 0.249349, Final residual = 0.000349508, No Iterations 1
smoothSolver:  Solving for e, Initial residual = 0.139941, Final residual = 0.000146227, No Iterations 1
DICPCG:  Solving for p, Initial residual = 0.119619, Final residual = 9.50373e-07, No Iterations 62
diagonal:  Solving for rho, Initial residual = 0, Final residual = 0, No Iterations 0
time step continuity errors : sum local = 1.75835e-08, global = 4.8879e-11, cumulative = 2.63176e-09
PIMPLE: Iteration 2
smoothSolver:  Solving for Ux, Initial residual = 0.00117335, Final residual = 2.34078e-06, No Iterations 1
smoothSolver:  Solving for Uy, Initial residual = 0.0101611, Final residual = 1.85312e-05, No Iterations 1
smoothSolver:  Solving for e, Initial residual = 0.0580247, Final residual = 9.17913e-05, No Iterations 1
DICPCG:  Solving for p, Initial residual = 0.0139949, Final residual = 8.4232e-07, No Iterations 50
diagonal:  Solving for rho, Initial residual = 0, Final residual = 0, No Iterations 0
time step continuity errors : sum local = 1.63318e-08, global = 1.01437e-09, cumulative = 3.64613e-09
PIMPLE: Iteration 3
smoothSolver:  Solving for Ux, Initial residual = 0.000219443, Final residual = 4.3407e-07, No Iterations 1
smoothSolver:  Solving for Uy, Initial residual = 0.0021403, Final residual = 1.0037e-08, No Iterations 2
smoothSolver:  Solving for e, Initial residual = 0.00708109, Final residual = 3.16223e-08, No Iterations 2
DICPCG:  Solving for p, Initial residual = 0.00171931, Final residual = 8.448e-07, No Iterations 43
diagonal:  Solving for rho, Initial residual = 0, Final residual = 0, No Iterations 0
time step continuity errors : sum local = 1.62322e-08, global = -9.07305e-10, cumulative = 2.73882e-09
smoothSolver:  Solving for k, Initial residual = 0.319285, Final residual = 3.53418e-09, No Iterations 3
bounding k, min: 0 max: 1.96386 average: 0.0473643
ExecutionTime = 0.82 s  ClockTime = 1 s

Courant Number mean: 0.0784927 max: 0.17382
Time = 0.035

PIMPLE: Iteration 1
diagonal:  Solving for rho, Initial residual = 0, Final residual = 0, No Iterations 0
smoothSolver:  Solving for Ux, Initial residual = 0.138392, Final residual = 0.000150778, No Iterations 1
smoothSolver:  Solving for Uy, Initial residual = 0.210935, Final residual = 0.000319965, No Iterations 1
smoothSolver:  Solving for e, Initial residual = 0.14082, Final residual = 0.000152815, No Iterations 1
DICPCG:  Solving for p, Initial residual = 0.114158, Final residual = 8.56409e-07, No Iterations 63
diagonal:  Solving for rho, Initial residual = 0, Final residual = 0, No Iterations 0
time step continuity errors : sum local = 1.64598e-08, global = -1.9624e-10, cumulative = 2.54258e-09
PIMPLE: Iteration 2
smoothSolver:  Solving for Ux, Initial residual = 0.00124921, Final residual = 2.40887e-06, No Iterations 1
smoothSolver:  Solving for Uy, Initial residual = 0.00930173, Final residual = 1.69192e-05, No Iterations 1
smoothSolver:  Solving for e, Initial residual = 0.0569506, Final residual = 9.00963e-05, No Iterations 1
DICPCG:  Solving for p, Initial residual = 0.0132761, Final residual = 8.42463e-07, No Iterations 52
diagonal:  Solving for rho, Initial residual = 0, Final residual = 0, No Iterations 0
time step continuity errors : sum local = 1.63111e-08, global = -1.4255e-09, cumulative = 1.11708e-09
PIMPLE: Iteration 3
smoothSolver:  Solving for Ux, Initial residual = 0.000225688, Final residual = 4.29925e-07, No Iterations 1
smoothSolver:  Solving for Uy, Initial residual = 0.00180071, Final residual = 8.01854e-09, No Iterations 2
smoothSolver:  Solving for e, Initial residual = 0.00615615, Final residual = 2.80595e-08, No Iterations 2
DICPCG:  Solving for p, Initial residual = 0.00144539, Final residual = 8.83305e-07, No Iterations 42
diagonal:  Solving for rho, Initial residual = 0, Final residual = 0, No Iterations 0
time step continuity errors : sum local = 1.6946e-08, global = -6.05787e-10, cumulative = 5.11294e-10
smoothSolver:  Solving for k, Initial residual = 0.221436, Final residual = 9.63402e-07, No Iterations 2
bounding k, min: 0 max: 2.72834 average: 0.0943967
ExecutionTime = 0.89 s  ClockTime = 1 s

Courant Number mean: 0.0923957 max: 0.185018
Time = 0.04

PIMPLE: Iteration 1
diagonal:  Solving for rho, Initial residual = 0, Final residual = 0, No Iterations 0
smoothSolver:  Solving for Ux, Initial residual = 0.153724, Final residual = 0.000173122, No Iterations 1
smoothSolver:  Solving for Uy, Initial residual = 0.165565, Final residual = 0.000274038, No Iterations 1
smoothSolver:  Solving for e, Initial residual = 0.149327, Final residual = 0.000174133, No Iterations 1
DICPCG:  Solving for p, Initial residual = 0.114233, Final residual = 8.21976e-07, No Iterations 62
diagonal:  Solving for rho, Initial residual = 0, Final residual = 0, No Iterations 0
time step continuity errors : sum local = 1.55577e-08, global = -1.08228e-10, cumulative = 4.03066e-10
PIMPLE: Iteration 2
smoothSolver:  Solving for Ux, Initial residual = 0.00144581, Final residual = 2.67792e-06, No Iterations 1
smoothSolver:  Solving for Uy, Initial residual = 0.00848696, Final residual = 1.58937e-05, No Iterations 1
smoothSolver:  Solving for e, Initial residual = 0.0581164, Final residual = 9.45161e-05, No Iterations 1
DICPCG:  Solving for p, Initial residual = 0.0130273, Final residual = 8.62628e-07, No Iterations 50
diagonal:  Solving for rho, Initial residual = 0, Final residual = 0, No Iterations 0
time step continuity errors : sum local = 1.58509e-08, global = -1.81418e-09, cumulative = -1.41111e-09
PIMPLE: Iteration 3
smoothSolver:  Solving for Ux, Initial residual = 0.00025222, Final residual = 4.59194e-07, No Iterations 1
smoothSolver:  Solving for Uy, Initial residual = 0.00151391, Final residual = 6.46253e-09, No Iterations 2
smoothSolver:  Solving for e, Initial residual = 0.00579683, Final residual = 2.72016e-08, No Iterations 2
DICPCG:  Solving for p, Initial residual = 0.00130798, Final residual = 7.39174e-07, No Iterations 40
diagonal:  Solving for rho, Initial residual = 0, Final residual = 0, No Iterations 0
time step continuity errors : sum local = 1.34606e-08, global = -6.16717e-10, cumulative = -2.02783e-09
smoothSolver:  Solving for k, Initial residual = 0.156485, Final residual = 6.42248e-07, No Iterations 2
bounding k, min: 0 max: 3.19414 average: 0.154034
ExecutionTime = 0.95 s  ClockTime = 1 s

Courant Number mean: 0.106005 max: 0.195816
Time = 0.045

PIMPLE: Iteration 1
diagonal:  Solving for rho, Initial residual = 0, Final residual = 0, No Iterations 0
smoothSolver:  Solving for Ux, Initial residual = 0.17953, Final residual = 0.000211023, No Iterations 1
smoothSolver:  Solving for Uy, Initial residual = 0.130914, Final residual = 0.00023523, No Iterations 1
smoothSolver:  Solving for e, Initial residual = 0.162389, Final residual = 0.000213466, No Iterations 1
DICPCG:  Solving for p, Initial residual = 0.116827, Final residual = 8.18659e-07, No Iterations 60
diagonal:  Solving for rho, Initial residual = 0, Final residual = 0, No Iterations 0
time step continuity errors : sum local = 1.45321e-08, global = 1.44649e-09, cumulative = -5.81337e-10
PIMPLE: Iteration 2
smoothSolver:  Solving for Ux, Initial residual = 0.00173848, Final residual = 3.09227e-06, No Iterations 1
smoothSolver:  Solving for Uy, Initial residual = 0.00764045, Final residual = 1.45167e-05, No Iterations 1
smoothSolver:  Solving for e, Initial residual = 0.0594551, Final residual = 0.000106548, No Iterations 1
DICPCG:  Solving for p, Initial residual = 0.0128822, Final residual = 9.45691e-07, No Iterations 50
diagonal:  Solving for rho, Initial residual = 0, Final residual = 0, No Iterations 0
time step continuity errors : sum local = 1.573e-08, global = -2.68884e-11, cumulative = -6.08226e-10
PIMPLE: Iteration 3
smoothSolver:  Solving for Ux, Initial residual = 0.000292566, Final residual = 5.12348e-07, No Iterations 1
smoothSolver:  Solving for Uy, Initial residual = 0.00132636, Final residual = 5.4294e-09, No Iterations 2
smoothSolver:  Solving for e, Initial residual = 0.00602498, Final residual = 2.95106e-08, No Iterations 2
DICPCG:  Solving for p, Initial residual = 0.00130766, Final residual = 7.97639e-07, No Iterations 38
diagonal:  Solving for rho, Initial residual = 0, Final residual = 0, No Iterations 0
time step continuity errors : sum local = 1.31616e-08, global = 2.75878e-10, cumulative = -3.32348e-10
smoothSolver:  Solving for k, Initial residual = 0.113686, Final residual = 4.15229e-07, No Iterations 2
bounding k, min: 0 max: 3.34852 average: 0.219995
ExecutionTime = 1.02 s  ClockTime = 2 s

Courant Number mean: 0.119276 max: 0.20515
Time = 0.05

PIMPLE: Iteration 1
diagonal:  Solving for rho, Initial residual = 0, Final residual = 0, No Iterations 0
smoothSolver:  Solving for Ux, Initial residual = 0.217387, Final residual = 0.00026979, No Iterations 1
smoothSolver:  Solving for Uy, Initial residual = 0.10949, Final residual = 0.000210043, No Iterations 1
smoothSolver:  Solving for e, Initial residual = 0.174749, Final residual = 0.000267136, No Iterations 1
DICPCG:  Solving for p, Initial residual = 0.117537, Final residual = 8.05352e-07, No Iterations 62
diagonal:  Solving for rho, Initial residual = 0, Final residual = 0, No Iterations 0
time step continuity errors : sum local = 1.28459e-08, global = 7.2673e-10, cumulative = 3.94382e-10
PIMPLE: Iteration 2
smoothSolver:  Solving for Ux, Initial residual = 0.00225841, Final residual = 3.94989e-06, No Iterations 1
smoothSolver:  Solving for Uy, Initial residual = 0.00699763, Final residual = 1.35389e-05, No Iterations 1
smoothSolver:  Solving for e, Initial residual = 0.0599142, Final residual = 0.000124069, No Iterations 1
DICPCG:  Solving for p, Initial residual = 0.0126913, Final residual = 9.87627e-07, No Iterations 49
diagonal:  Solving for rho, Initial residual = 0, Final residual = 0, No Iterations 0
time step continuity errors : sum local = 1.43413e-08, global = -1.99595e-10, cumulative = 1.94788e-10
PIMPLE: Iteration 3
smoothSolver:  Solving for Ux, Initial residual = 0.00035932, Final residual = 6.28145e-07, No Iterations 1
smoothSolver:  Solving for Uy, Initial residual = 0.00121881, Final residual = 5.12679e-09, No Iterations 2
smoothSolver:  Solving for e, Initial residual = 0.00627167, Final residual = 3.5293e-08, No Iterations 2
DICPCG:  Solving for p, Initial residual = 0.00134971, Final residual = 7.62815e-07, No Iterations 40
diagonal:  Solving for rho, Initial residual = 0, Final residual = 0, No Iterations 0
time step continuity errors : sum local = 1.10202e-08, global = 9.03544e-10, cumulative = 1.09833e-09
smoothSolver:  Solving for k, Initial residual = 0.0868852, Final residual = 3.43086e-07, No Iterations 2
bounding k, min: 0 max: 3.28611 average: 0.288145
ExecutionTime = 1.21 s  ClockTime = 2 s

Courant Number mean: 0.132153 max: 0.212593
Time = 0.055

PIMPLE: Iteration 1
diagonal:  Solving for rho, Initial residual = 0, Final residual = 0, No Iterations 0
smoothSolver:  Solving for Ux, Initial residual = 0.279217, Final residual = 0.00038899, No Iterations 1
smoothSolver:  Solving for Uy, Initial residual = 0.100689, Final residual = 0.000199443, No Iterations 1
smoothSolver:  Solving for e, Initial residual = 0.174781, Final residual = 0.000326702, No Iterations 1
DICPCG:  Solving for p, Initial residual = 0.108962, Final residual = 9.8717e-07, No Iterations 62
diagonal:  Solving for rho, Initial residual = 0, Final residual = 0, No Iterations 0
time step continuity errors : sum local = 1.37257e-08, global = 6.65599e-10, cumulative = 1.76393e-09
PIMPLE: Iteration 2
smoothSolver:  Solving for Ux, Initial residual = 0.00316141, Final residual = 5.85495e-06, No Iterations 1
smoothSolver:  Solving for Uy, Initial residual = 0.00660051, Final residual = 1.31338e-05, No Iterations 1
smoothSolver:  Solving for e, Initial residual = 0.064826, Final residual = 0.000151521, No Iterations 1
DICPCG:  Solving for p, Initial residual = 0.0137065, Final residual = 7.54484e-07, No Iterations 52
diagonal:  Solving for rho, Initial residual = 0, Final residual = 0, No Iterations 0
time step continuity errors : sum local = 9.46016e-09, global = -7.75356e-10, cumulative = 9.88575e-10
PIMPLE: Iteration 3
smoothSolver:  Solving for Ux, Initial residual = 0.00049251, Final residual = 8.96372e-07, No Iterations 1
smoothSolver:  Solving for Uy, Initial residual = 0.00116251, Final residual = 5.25897e-09, No Iterations 2
smoothSolver:  Solving for e, Initial residual = 0.00598546, Final residual = 4.28925e-08, No Iterations 2
DICPCG:  Solving for p, Initial residual = 0.00133183, Final residual = 8.41609e-07, No Iterations 40
diagonal:  Solving for rho, Initial residual = 0, Final residual = 0, No Iterations 0
time step continuity errors : sum local = 1.0556e-08, global = 4.56076e-10, cumulative = 1.44465e-09
smoothSolver:  Solving for k, Initial residual = 0.0753267, Final residual = 3.67261e-07, No Iterations 2
bounding k, min: 0 max: 3.11604 average: 0.358483
ExecutionTime = 1.28 s  ClockTime = 2 s

Courant Number mean: 0.144563 max: 0.219052
Time = 0.06

PIMPLE: Iteration 1
diagonal:  Solving for rho, Initial residual = 0, Final residual = 0, No Iterations 0
smoothSolver:  Solving for Ux, Initial residual = 0.340026, Final residual = 0.000613085, No Iterations 1
smoothSolver:  Solving for Uy, Initial residual = 0.0951325, Final residual = 0.000193911, No Iterations 1
smoothSolver:  Solving for e, Initial residual = 0.149287, Final residual = 0.000364465, No Iterations 1
DICPCG:  Solving for p, Initial residual = 0.0857707, Final residual = 9.63199e-07, No Iterations 58
diagonal:  Solving for rho, Initial residual = 0, Final residual = 0, No Iterations 0
time step continuity errors : sum local = 1.15623e-08, global = 1.38869e-09, cumulative = 2.83334e-09
PIMPLE: Iteration 2
smoothSolver:  Solving for Ux, Initial residual = 0.00322329, Final residual = 6.91606e-06, No Iterations 1
smoothSolver:  Solving for Uy, Initial residual = 0.00644325, Final residual = 1.34812e-05, No Iterations 1
smoothSolver:  Solving for e, Initial residual = 0.0797269, Final residual = 0.000211871, No Iterations 1
DICPCG:  Solving for p, Initial residual = 0.017597, Final residual = 7.35108e-07, No Iterations 52
diagonal:  Solving for rho, Initial residual = 0, Final residual = 0, No Iterations 0
time step continuity errors : sum local = 8.14517e-09, global = -8.65869e-10, cumulative = 1.96747e-09
PIMPLE: Iteration 3
smoothSolver:  Solving for Ux, Initial residual = 0.000609613, Final residual = 3.21869e-09, No Iterations 2
smoothSolver:  Solving for Uy, Initial residual = 0.00115584, Final residual = 6.58244e-09, No Iterations 2
smoothSolver:  Solving for e, Initial residual = 0.00555812, Final residual = 5.30116e-08, No Iterations 2
DICPCG:  Solving for p, Initial residual = 0.00130014, Final residual = 9.50204e-07, No Iterations 40
diagonal:  Solving for rho, Initial residual = 0, Final residual = 0, No Iterations 0
time step continuity errors : sum local = 1.06047e-08, global = 3.03959e-10, cumulative = 2.27143e-09
smoothSolver:  Solving for k, Initial residual = 0.0786527, Final residual = 5.01768e-07, No Iterations 2
bounding k, min: 0 max: 2.91613 average: 0.438556
ExecutionTime = 1.35 s  ClockTime = 2 s

Courant Number mean: 0.156422 max: 0.225647
Time = 0.065

PIMPLE: Iteration 1
diagonal:  Solving for rho, Initial residual = 0, Final residual = 0, No Iterations 0
smoothSolver:  Solving for Ux, Initial residual = 0.285847, Final residual = 0.000762208, No Iterations 1
smoothSolver:  Solving for Uy, Initial residual = 0.088267, Final residual = 0.000196978, No Iterations 1
smoothSolver:  Solving for e, Initial residual = 0.105855, Final residual = 0.000334231, No Iterations 1
DICPCG:  Solving for p, Initial residual = 0.0674623, Final residual = 6.5097e-07, No Iterations 60
diagonal:  Solving for rho, Initial residual = 0, Final residual = 0, No Iterations 0
time step continuity errors : sum local = 6.99354e-09, global = -1.46395e-10, cumulative = 2.12504e-09
PIMPLE: Iteration 2
smoothSolver:  Solving for Ux, Initial residual = 0.00195008, Final residual = 4.84852e-06, No Iterations 1
smoothSolver:  Solving for Uy, Initial residual = 0.00677103, Final residual = 1.60451e-05, No Iterations 1
smoothSolver:  Solving for e, Initial residual = 0.074293, Final residual = 0.000255102, No Iterations 1
DICPCG:  Solving for p, Initial residual = 0.01797, Final residual = 6.62461e-07, No Iterations 49
diagonal:  Solving for rho, Initial residual = 0, Final residual = 0, No Iterations 0
time step continuity errors : sum local = 6.92303e-09, global = -8.61536e-10, cumulative = 1.2635e-09
PIMPLE: Iteration 3
smoothSolver:  Solving for Ux, Initial residual = 0.000446947, Final residual = 4.58703e-09, No Iterations 2
smoothSolver:  Solving for Uy, Initial residual = 0.00121052, Final residual = 1.16898e-08, No Iterations 2
smoothSolver:  Solving for e, Initial residual = 0.00561238, Final residual = 8.29074e-08, No Iterations 2
DICPCG:  Solving for p, Initial residual = 0.00146662, Final residual = 8.49508e-07, No Iterations 42
diagonal:  Solving for rho, Initial residual = 0, Final residual = 0, No Iterations 0
time step continuity errors : sum local = 8.99249e-09, global = 6.52754e-10, cumulative = 1.91626e-09
smoothSolver:  Solving for k, Initial residual = 0.0938399, Final residual = 9.7592e-07, No Iterations 2
bounding k, min: 0 max: 3.08624 average: 0.548725
ExecutionTime = 1.41 s  ClockTime = 2 s

Courant Number mean: 0.167611 max: 0.230939
Time = 0.07

PIMPLE: Iteration 1
diagonal:  Solving for rho, Initial residual = 0, Final residual = 0, No Iterations 0
smoothSolver:  Solving for Ux, Initial residual = 0.18233, Final residual = 0.000751316, No Iterations 1
smoothSolver:  Solving for Uy, Initial residual = 0.080036, Final residual = 0.000200863, No Iterations 1
smoothSolver:  Solving for e, Initial residual = 0.108387, Final residual = 0.000364939, No Iterations 1
DICPCG:  Solving for p, Initial residual = 0.102626, Final residual = 9.52847e-07, No Iterations 55
diagonal:  Solving for rho, Initial residual = 0, Final residual = 0, No Iterations 0
time step continuity errors : sum local = 1.09443e-08, global = -5.87265e-12, cumulative = 1.91038e-09
PIMPLE: Iteration 2
smoothSolver:  Solving for Ux, Initial residual = 0.00216505, Final residual = 7.68419e-06, No Iterations 1
smoothSolver:  Solving for Uy, Initial residual = 0.00745479, Final residual = 2.1854e-05, No Iterations 1
smoothSolver:  Solving for e, Initial residual = 0.0438236, Final residual = 0.000192784, No Iterations 1
DICPCG:  Solving for p, Initial residual = 0.0108908, Final residual = 8.42582e-07, No Iterations 50
diagonal:  Solving for rho, Initial residual = 0, Final residual = 0, No Iterations 0
time step continuity errors : sum local = 1.03827e-08, global = -3.6615e-10, cumulative = 1.54423e-09
PIMPLE: Iteration 3
smoothSolver:  Solving for Ux, Initial residual = 0.000315964, Final residual = 5.98066e-09, No Iterations 2
smoothSolver:  Solving for Uy, Initial residual = 0.00133737, Final residual = 2.17521e-08, No Iterations 2
smoothSolver:  Solving for e, Initial residual = 0.00407218, Final residual = 1.03636e-07, No Iterations 2
DICPCG:  Solving for p, Initial residual = 0.00117181, Final residual = 8.90382e-07, No Iterations 41
diagonal:  Solving for rho, Initial residual = 0, Final residual = 0, No Iterations 0
time step continuity errors : sum local = 1.10399e-08, global = 1.1209e-09, cumulative = 2.66514e-09
smoothSolver:  Solving for k, Initial residual = 0.111411, Final residual = 1.04035e-08, No Iterations 3
bounding k, min: 0 max: 4.43467 average: 0.710167
ExecutionTime = 1.47 s  ClockTime = 2 s

Courant Number mean: 0.178015 max: 0.279572
Time = 0.075

PIMPLE: Iteration 1
diagonal:  Solving for rho, Initial residual = 0, Final residual = 0, No Iterations 0
smoothSolver:  Solving for Ux, Initial residual = 0.141154, Final residual = 0.000755627, No Iterations 1
smoothSolver:  Solving for Uy, Initial residual = 0.0999556, Final residual = 0.000227379, No Iterations 1
smoothSolver:  Solving for e, Initial residual = 0.120714, Final residual = 0.000489313, No Iterations 1
DICPCG:  Solving for p, Initial residual = 0.111725, Final residual = 8.23415e-07, No Iterations 60
diagonal:  Solving for rho, Initial residual = 0, Final residual = 0, No Iterations 0
time step continuity errors : sum local = 1.12861e-08, global = -4.67283e-10, cumulative = 2.19785e-09
PIMPLE: Iteration 2
smoothSolver:  Solving for Ux, Initial residual = 0.00255354, Final residual = 1.09284e-05, No Iterations 1
smoothSolver:  Solving for Uy, Initial residual = 0.0065995, Final residual = 2.40649e-05, No Iterations 1
smoothSolver:  Solving for e, Initial residual = 0.0186461, Final residual = 9.07701e-05, No Iterations 1
DICPCG:  Solving for p, Initial residual = 0.00487401, Final residual = 9.66283e-07, No Iterations 46
diagonal:  Solving for rho, Initial residual = 0, Final residual = 0, No Iterations 0
time step continuity errors : sum local = 1.4472e-08, global = -4.46393e-10, cumulative = 1.75146e-09
PIMPLE: Iteration 3
smoothSolver:  Solving for Ux, Initial residual = 0.000176692, Final residual = 6.53594e-07, No Iterations 1
smoothSolver:  Solving for Uy, Initial residual = 0.00152308, Final residual = 2.63296e-08, No Iterations 2
smoothSolver:  Solving for e, Initial residual = 0.00233096, Final residual = 7.76984e-08, No Iterations 2
DICPCG:  Solving for p, Initial residual = 0.000661383, Final residual = 8.32593e-07, No Iterations 39
diagonal:  Solving for rho, Initial residual = 0, Final residual = 0, No Iterations 0
time step continuity errors : sum local = 1.24535e-08, global = 1.15687e-09, cumulative = 2.90833e-09
smoothSolver:  Solving for k, Initial residual = 0.107416, Final residual = 1.03372e-08, No Iterations 3
bounding k, min: 0 max: 8.69034 average: 0.905532
ExecutionTime = 1.66 s  ClockTime = 2 s

Courant Number mean: 0.187778 max: 0.314548
Time = 0.08

PIMPLE: Iteration 1
diagonal:  Solving for rho, Initial residual = 0, Final residual = 0, No Iterations 0
smoothSolver:  Solving for Ux, Initial residual = 0.122477, Final residual = 0.000698881, No Iterations 1
smoothSolver:  Solving for Uy, Initial residual = 0.15757, Final residual = 0.000447634, No Iterations 1
smoothSolver:  Solving for e, Initial residual = 0.114185, Final residual = 0.000548017, No Iterations 1
DICPCG:  Solving for p, Initial residual = 0.105413, Final residual = 8.51547e-07, No Iterations 60
diagonal:  Solving for rho, Initial residual = 0, Final residual = 0, No Iterations 0
time step continuity errors : sum local = 1.36623e-08, global = -8.54929e-10, cumulative = 2.05341e-09
PIMPLE: Iteration 2
smoothSolver:  Solving for Ux, Initial residual = 0.00230887, Final residual = 9.62429e-06, No Iterations 1
smoothSolver:  Solving for Uy, Initial residual = 0.0112646, Final residual = 4.94245e-05, No Iterations 1
smoothSolver:  Solving for e, Initial residual = 0.0236153, Final residual = 0.000130318, No Iterations 1
DICPCG:  Solving for p, Initial residual = 0.00682073, Final residual = 9.26594e-07, No Iterations 48
diagonal:  Solving for rho, Initial residual = 0, Final residual = 0, No Iterations 0
time step continuity errors : sum local = 1.57942e-08, global = -1.09467e-09, cumulative = 9.5874e-10
PIMPLE: Iteration 3
smoothSolver:  Solving for Ux, Initial residual = 0.000209579, Final residual = 7.75039e-07, No Iterations 1
smoothSolver:  Solving for Uy, Initial residual = 0.00196468, Final residual = 6.11239e-08, No Iterations 2
smoothSolver:  Solving for e, Initial residual = 0.00174316, Final residual = 7.71385e-08, No Iterations 2
DICPCG:  Solving for p, Initial residual = 0.000475374, Final residual = 9.46127e-07, No Iterations 36
diagonal:  Solving for rho, Initial residual = 0, Final residual = 0, No Iterations 0
time step continuity errors : sum local = 1.60261e-08, global = 1.85493e-09, cumulative = 2.81367e-09
smoothSolver:  Solving for k, Initial residual = 0.0793362, Final residual = 4.59808e-09, No Iterations 3
bounding k, min: 0 max: 11.2504 average: 1.08706
ExecutionTime = 1.74 s  ClockTime = 2 s

Courant Number mean: 0.197509 max: 0.327349
Time = 0.085

PIMPLE: Iteration 1
diagonal:  Solving for rho, Initial residual = 0, Final residual = 0, No Iterations 0
smoothSolver:  Solving for Ux, Initial residual = 0.107323, Final residual = 0.000575265, No Iterations 1
smoothSolver:  Solving for Uy, Initial residual = 0.142181, Final residual = 0.000495389, No Iterations 1
smoothSolver:  Solving for e, Initial residual = 0.100471, Final residual = 0.000508629, No Iterations 1
DICPCG:  Solving for p, Initial residual = 0.0911669, Final residual = 9.94127e-07, No Iterations 58
diagonal:  Solving for rho, Initial residual = 0, Final residual = 0, No Iterations 0
time step continuity errors : sum local = 1.74051e-08, global = -4.32515e-10, cumulative = 2.38115e-09
PIMPLE: Iteration 2
smoothSolver:  Solving for Ux, Initial residual = 0.00144538, Final residual = 6.33832e-06, No Iterations 1
smoothSolver:  Solving for Uy, Initial residual = 0.0151064, Final residual = 7.31674e-05, No Iterations 1
smoothSolver:  Solving for e, Initial residual = 0.033025, Final residual = 0.000226007, No Iterations 1
DICPCG:  Solving for p, Initial residual = 0.00888759, Final residual = 7.62292e-07, No Iterations 48
diagonal:  Solving for rho, Initial residual = 0, Final residual = 0, No Iterations 0
time step continuity errors : sum local = 1.35929e-08, global = -1.99933e-09, cumulative = 3.81821e-10
PIMPLE: Iteration 3
smoothSolver:  Solving for Ux, Initial residual = 0.000274754, Final residual = 7.93823e-09, No Iterations 2
smoothSolver:  Solving for Uy, Initial residual = 0.00247111, Final residual = 7.50454e-08, No Iterations 2
smoothSolver:  Solving for e, Initial residual = 0.00240291, Final residual = 1.79941e-07, No Iterations 2
DICPCG:  Solving for p, Initial residual = 0.000662335, Final residual = 9.81708e-07, No Iterations 35
diagonal:  Solving for rho, Initial residual = 0, Final residual = 0, No Iterations 0
time step continuity errors : sum local = 1.73701e-08, global = 2.10094e-09, cumulative = 2.48276e-09
smoothSolver:  Solving for k, Initial residual = 0.0553687, Final residual = 6.66875e-09, No Iterations 3
bounding k, min: 0 max: 10.9738 average: 1.23616
ExecutionTime = 1.8 s  ClockTime = 2 s

Courant Number mean: 0.207307 max: 0.323821
Time = 0.09

PIMPLE: Iteration 1
diagonal:  Solving for rho, Initial residual = 0, Final residual = 0, No Iterations 0
smoothSolver:  Solving for Ux, Initial residual = 0.102411, Final residual = 0.000583594, No Iterations 1
smoothSolver:  Solving for Uy, Initial residual = 0.0945888, Final residual = 0.000403408, No Iterations 1
smoothSolver:  Solving for e, Initial residual = 0.0863509, Final residual = 0.000418191, No Iterations 1
DICPCG:  Solving for p, Initial residual = 0.0774584, Final residual = 7.72524e-07, No Iterations 54
diagonal:  Solving for rho, Initial residual = 0, Final residual = 0, No Iterations 0
time step continuity errors : sum local = 1.36738e-08, global = 5.30861e-10, cumulative = 3.01362e-09
PIMPLE: Iteration 2
smoothSolver:  Solving for Ux, Initial residual = 0.00135138, Final residual = 6.37179e-06, No Iterations 1
smoothSolver:  Solving for Uy, Initial residual = 0.0121197, Final residual = 6.67555e-05, No Iterations 1
smoothSolver:  Solving for e, Initial residual = 0.032578, Final residual = 0.00025583, No Iterations 1
DICPCG:  Solving for p, Initial residual = 0.00824541, Final residual = 8.64323e-07, No Iterations 45
diagonal:  Solving for rho, Initial residual = 0, Final residual = 0, No Iterations 0
time step continuity errors : sum local = 1.49218e-08, global = -2.17804e-09, cumulative = 8.35585e-10
PIMPLE: Iteration 3
smoothSolver:  Solving for Ux, Initial residual = 0.000239483, Final residual = 8.19633e-09, No Iterations 2
smoothSolver:  Solving for Uy, Initial residual = 0.00216292, Final residual = 8.67366e-08, No Iterations 2
smoothSolver:  Solving for e, Initial residual = 0.00250551, Final residual = 2.57159e-07, No Iterations 2
DICPCG:  Solving for p, Initial residual = 0.000712399, Final residual = 6.73683e-07, No Iterations 37
diagonal:  Solving for rho, Initial residual = 0, Final residual = 0, No Iterations 0
time step continuity errors : sum local = 1.15461e-08, global = 1.35852e-09, cumulative = 2.1941e-09
smoothSolver:  Solving for k, Initial residual = 0.0704181, Final residual = 7.2881e-09, No Iterations 3
bounding k, min: 0 max: 9.16139 average: 1.36831
ExecutionTime = 1.87 s  ClockTime = 3 s

Courant Number mean: 0.21691 max: 0.316159
Time = 0.095

PIMPLE: Iteration 1
diagonal:  Solving for rho, Initial residual = 0, Final residual = 0, No Iterations 0
smoothSolver:  Solving for Ux, Initial residual = 0.0929476, Final residual = 0.00057359, No Iterations 1
smoothSolver:  Solving for Uy, Initial residual = 0.0845704, Final residual = 0.000374759, No Iterations 1
smoothSolver:  Solving for e, Initial residual = 0.0853364, Final residual = 0.000483286, No Iterations 1
DICPCG:  Solving for p, Initial residual = 0.0923406, Final residual = 9.51517e-07, No Iterations 55
diagonal:  Solving for rho, Initial residual = 0, Final residual = 0, No Iterations 0
time step continuity errors : sum local = 1.5863e-08, global = 9.07722e-10, cumulative = 3.10182e-09
PIMPLE: Iteration 2
smoothSolver:  Solving for Ux, Initial residual = 0.00181294, Final residual = 9.95704e-06, No Iterations 1
smoothSolver:  Solving for Uy, Initial residual = 0.00769123, Final residual = 3.87805e-05, No Iterations 1
smoothSolver:  Solving for e, Initial residual = 0.0294142, Final residual = 0.000237109, No Iterations 1
DICPCG:  Solving for p, Initial residual = 0.00736718, Final residual = 8.65769e-07, No Iterations 45
diagonal:  Solving for rho, Initial residual = 0, Final residual = 0, No Iterations 0
time step continuity errors : sum local = 1.35167e-08, global = -1.46631e-09, cumulative = 1.63551e-09
PIMPLE: Iteration 3
smoothSolver:  Solving for Ux, Initial residual = 0.000140347, Final residual = 7.59514e-07, No Iterations 1
smoothSolver:  Solving for Uy, Initial residual = 0.00156631, Final residual = 6.9472e-08, No Iterations 2
smoothSolver:  Solving for e, Initial residual = 0.00221211, Final residual = 2.63392e-07, No Iterations 2
DICPCG:  Solving for p, Initial residual = 0.000622149, Final residual = 9.20738e-07, No Iterations 36
diagonal:  Solving for rho, Initial residual = 0, Final residual = 0, No Iterations 0
time step continuity errors : sum local = 1.42838e-08, global = 7.82473e-10, cumulative = 2.41799e-09
smoothSolver:  Solving for k, Initial residual = 0.0707783, Final residual = 9.97729e-09, No Iterations 3
bounding k, min: 0 max: 7.84 average: 1.49911
ExecutionTime = 1.93 s  ClockTime = 3 s

Courant Number mean: 0.225874 max: 0.326404
Time = 0.1

PIMPLE: Iteration 1
diagonal:  Solving for rho, Initial residual = 0, Final residual = 0, No Iterations 0
smoothSolver:  Solving for Ux, Initial residual = 0.0779203, Final residual = 0.000496197, No Iterations 1
smoothSolver:  Solving for Uy, Initial residual = 0.0917334, Final residual = 0.000437085, No Iterations 1
smoothSolver:  Solving for e, Initial residual = 0.111949, Final residual = 0.000725684, No Iterations 1
DICPCG:  Solving for p, Initial residual = 0.118609, Final residual = 3.79792e-07, No Iterations 56
diagonal:  Solving for rho, Initial residual = 0, Final residual = 0, No Iterations 0
time step continuity errors : sum local = 5.58522e-09, global = -1.69312e-10, cumulative = 2.24868e-09
PIMPLE: Iteration 2
smoothSolver:  Solving for Ux, Initial residual = 0.00201091, Final residual = 1.21896e-05, No Iterations 1
smoothSolver:  Solving for Uy, Initial residual = 0.00716407, Final residual = 3.93674e-05, No Iterations 1
smoothSolver:  Solving for e, Initial residual = 0.0261084, Final residual = 0.000200518, No Iterations 1
DICPCG:  Solving for p, Initial residual = 0.00733917, Final residual = 9.89549e-07, No Iterations 46
diagonal:  Solving for rho, Initial residual = 0, Final residual = 0, No Iterations 0
time step continuity errors : sum local = 1.30406e-08, global = -9.98619e-10, cumulative = 1.25006e-09
PIMPLE: Iteration 3
smoothSolver:  Solving for Ux, Initial residual = 0.000161624, Final residual = 8.95102e-07, No Iterations 1
smoothSolver:  Solving for Uy, Initial residual = 0.00142005, Final residual = 5.94946e-08, No Iterations 2
smoothSolver:  Solving for e, Initial residual = 0.00212237, Final residual = 2.96941e-07, No Iterations 2
DICPCG:  Solving for p, Initial residual = 0.000578423, Final residual = 9.05575e-07, No Iterations 34
diagonal:  Solving for rho, Initial residual = 0, Final residual = 0, No Iterations 0
time step continuity errors : sum local = 1.18677e-08, global = 1.19084e-09, cumulative = 2.44089e-09
smoothSolver:  Solving for k, Initial residual = 0.0636432, Final residual = 9.20004e-09, No Iterations 3
bounding k, min: 0 max: 7.57018 average: 1.63076
ExecutionTime = 2.13 s  ClockTime = 3 s

Courant Number mean: 0.233688 max: 0.333487
Time = 0.105

PIMPLE: Iteration 1
diagonal:  Solving for rho, Initial residual = 0, Final residual = 0, No Iterations 0
smoothSolver:  Solving for Ux, Initial residual = 0.0656046, Final residual = 0.000433532, No Iterations 1
smoothSolver:  Solving for Uy, Initial residual = 0.0858375, Final residual = 0.00042229, No Iterations 1
smoothSolver:  Solving for e, Initial residual = 0.131817, Final residual = 0.000899634, No Iterations 1
DICPCG:  Solving for p, Initial residual = 0.14205, Final residual = 6.78376e-07, No Iterations 56
diagonal:  Solving for rho, Initial residual = 0, Final residual = 0, No Iterations 0
time step continuity errors : sum local = 8.22437e-09, global = -8.94642e-10, cumulative = 1.54625e-09
PIMPLE: Iteration 2
smoothSolver:  Solving for Ux, Initial residual = 0.00173321, Final residual = 1.08796e-05, No Iterations 1
smoothSolver:  Solving for Uy, Initial residual = 0.00857521, Final residual = 4.95487e-05, No Iterations 1
smoothSolver:  Solving for e, Initial residual = 0.0351327, Final residual = 0.000292679, No Iterations 1
DICPCG:  Solving for p, Initial residual = 0.0113612, Final residual = 6.10111e-07, No Iterations 48
diagonal:  Solving for rho, Initial residual = 0, Final residual = 0, No Iterations 0
time step continuity errors : sum local = 6.25668e-09, global = -8.81911e-10, cumulative = 6.6434e-10
PIMPLE: Iteration 3
smoothSolver:  Solving for Ux, Initial residual = 0.000231629, Final residual = 1.16489e-08, No Iterations 2
smoothSolver:  Solving for Uy, Initial residual = 0.00171204, Final residual = 9.35904e-08, No Iterations 2
smoothSolver:  Solving for e, Initial residual = 0.00276279, Final residual = 3.42121e-07, No Iterations 2
DICPCG:  Solving for p, Initial residual = 0.000961356, Final residual = 8.78843e-07, No Iterations 36
diagonal:  Solving for rho, Initial residual = 0, Final residual = 0, No Iterations 0
time step continuity errors : sum local = 8.96562e-09, global = -4.97483e-11, cumulative = 6.14592e-10
smoothSolver:  Solving for k, Initial residual = 0.0567906, Final residual = 8.31475e-09, No Iterations 3
bounding k, min: 0 max: 7.23385 average: 1.75766
ExecutionTime = 2.19 s  ClockTime = 3 s

Courant Number mean: 0.239837 max: 0.336328
Time = 0.11

PIMPLE: Iteration 1
diagonal:  Solving for rho, Initial residual = 0, Final residual = 0, No Iterations 0
smoothSolver:  Solving for Ux, Initial residual = 0.0553092, Final residual = 0.000386619, No Iterations 1
smoothSolver:  Solving for Uy, Initial residual = 0.0744642, Final residual = 0.000368556, No Iterations 1
smoothSolver:  Solving for e, Initial residual = 0.144639, Final residual = 0.00099306, No Iterations 1
DICPCG:  Solving for p, Initial residual = 0.174552, Final residual = 7.81002e-07, No Iterations 60
diagonal:  Solving for rho, Initial residual = 0, Final residual = 0, No Iterations 0
time step continuity errors : sum local = 7.17773e-09, global = 5.65686e-11, cumulative = 6.7116e-10
PIMPLE: Iteration 2
smoothSolver:  Solving for Ux, Initial residual = 0.0015557, Final residual = 9.57484e-06, No Iterations 1
smoothSolver:  Solving for Uy, Initial residual = 0.00777537, Final residual = 4.52833e-05, No Iterations 1
smoothSolver:  Solving for e, Initial residual = 0.0397223, Final residual = 0.000359096, No Iterations 1
DICPCG:  Solving for p, Initial residual = 0.0149416, Final residual = 9.45989e-07, No Iterations 46
diagonal:  Solving for rho, Initial residual = 0, Final residual = 0, No Iterations 0
time step continuity errors : sum local = 6.67616e-09, global = -5.02594e-10, cumulative = 1.68566e-10
PIMPLE: Iteration 3
smoothSolver:  Solving for Ux, Initial residual = 0.000217731, Final residual = 1.17659e-08, No Iterations 2
smoothSolver:  Solving for Uy, Initial residual = 0.00152424, Final residual = 8.93858e-08, No Iterations 2
smoothSolver:  Solving for e, Initial residual = 0.00361234, Final residual = 4.45469e-07, No Iterations 2
DICPCG:  Solving for p, Initial residual = 0.00160577, Final residual = 8.29014e-07, No Iterations 39
diagonal:  Solving for rho, Initial residual = 0, Final residual = 0, No Iterations 0
time step continuity errors : sum local = 5.82009e-09, global = -6.48253e-10, cumulative = -4.79687e-10
smoothSolver:  Solving for k, Initial residual = 0.0513469, Final residual = 8.81015e-09, No Iterations 3
bounding k, min: 0 max: 6.86342 average: 1.87239
ExecutionTime = 2.26 s  ClockTime = 3 s

Courant Number mean: 0.243812 max: 0.337719
Time = 0.115

PIMPLE: Iteration 1
diagonal:  Solving for rho, Initial residual = 0, Final residual = 0, No Iterations 0
smoothSolver:  Solving for Ux, Initial residual = 0.0432067, Final residual = 0.000321132, No Iterations 1
smoothSolver:  Solving for Uy, Initial residual = 0.0665895, Final residual = 0.000332134, No Iterations 1
smoothSolver:  Solving for e, Initial residual = 0.153404, Final residual = 0.00104665, No Iterations 1
DICPCG:  Solving for p, Initial residual = 0.253108, Final residual = 7.11479e-07, No Iterations 62
diagonal:  Solving for rho, Initial residual = 0, Final residual = 0, No Iterations 0
time step continuity errors : sum local = 4.36753e-09, global = -2.07211e-10, cumulative = -6.86898e-10
PIMPLE: Iteration 2
smoothSolver:  Solving for Ux, Initial residual = 0.00183328, Final residual = 1.09061e-05, No Iterations 1
smoothSolver:  Solving for Uy, Initial residual = 0.00594822, Final residual = 3.56505e-05, No Iterations 1
smoothSolver:  Solving for e, Initial residual = 0.0348267, Final residual = 0.000331409, No Iterations 1
DICPCG:  Solving for p, Initial residual = 0.0204738, Final residual = 9.0088e-07, No Iterations 45
diagonal:  Solving for rho, Initial residual = 0, Final residual = 0, No Iterations 0
time step continuity errors : sum local = 3.39595e-09, global = 1.25549e-10, cumulative = -5.61349e-10
PIMPLE: Iteration 3
smoothSolver:  Solving for Ux, Initial residual = 0.000160841, Final residual = 9.71115e-07, No Iterations 1
smoothSolver:  Solving for Uy, Initial residual = 0.00126204, Final residual = 7.11328e-08, No Iterations 2
smoothSolver:  Solving for e, Initial residual = 0.00398698, Final residual = 5.09601e-07, No Iterations 2
DICPCG:  Solving for p, Initial residual = 0.0027972, Final residual = 9.74994e-07, No Iterations 41
diagonal:  Solving for rho, Initial residual = 0, Final residual = 0, No Iterations 0
time step continuity errors : sum local = 3.6581e-09, global = -3.70671e-10, cumulative = -9.3202e-10
smoothSolver:  Solving for k, Initial residual = 0.0454793, Final residual = 9.1393e-09, No Iterations 3
bounding k, min: 0 max: 6.47509 average: 1.96753
ExecutionTime = 2.32 s  ClockTime = 3 s

Courant Number mean: 0.245209 max: 0.347988
Time = 0.12

PIMPLE: Iteration 1
diagonal:  Solving for rho, Initial residual = 0, Final residual = 0, No Iterations 0
smoothSolver:  Solving for Ux, Initial residual = 0.0309316, Final residual = 0.000244626, No Iterations 1
smoothSolver:  Solving for Uy, Initial residual = 0.0608151, Final residual = 0.000308282, No Iterations 1
smoothSolver:  Solving for e, Initial residual = 0.156161, Final residual = 0.00105384, No Iterations 1
DICPCG:  Solving for p, Initial residual = 0.409877, Final residual = 8.32119e-07, No Iterations 66
diagonal:  Solving for rho, Initial residual = 0, Final residual = 0, No Iterations 0
time step continuity errors : sum local = 3.04903e-09, global = -8.43897e-11, cumulative = -1.01641e-09
PIMPLE: Iteration 2
smoothSolver:  Solving for Ux, Initial residual = 0.00195204, Final residual = 1.13096e-05, No Iterations 1
smoothSolver:  Solving for Uy, Initial residual = 0.00506784, Final residual = 3.15917e-05, No Iterations 1
smoothSolver:  Solving for e, Initial residual = 0.0243565, Final residual = 0.000242193, No Iterations 1
DICPCG:  Solving for p, Initial residual = 0.0269241, Final residual = 6.68126e-07, No Iterations 54
diagonal:  Solving for rho, Initial residual = 0, Final residual = 0, No Iterations 0
time step continuity errors : sum local = 1.36397e-09, global = 2.44634e-10, cumulative = -7.71775e-10
PIMPLE: Iteration 3
smoothSolver:  Solving for Ux, Initial residual = 0.000127164, Final residual = 8.26619e-07, No Iterations 1
smoothSolver:  Solving for Uy, Initial residual = 0.00115018, Final residual = 6.64885e-08, No Iterations 2
smoothSolver:  Solving for e, Initial residual = 0.00362485, Final residual = 4.71879e-07, No Iterations 2
DICPCG:  Solving for p, Initial residual = 0.00454862, Final residual = 9.83736e-07, No Iterations 45
diagonal:  Solving for rho, Initial residual = 0, Final residual = 0, No Iterations 0
time step continuity errors : sum local = 1.9638e-09, global = -1.77544e-10, cumulative = -9.49319e-10
smoothSolver:  Solving for k, Initial residual = 0.0404944, Final residual = 9.24975e-09, No Iterations 3
bounding k, min: 0 max: 5.99902 average: 2.0367
ExecutionTime = 2.38 s  ClockTime = 3 s

Courant Number mean: 0.243803 max: 0.356691
Time = 0.125

PIMPLE: Iteration 1
diagonal:  Solving for rho, Initial residual = 0, Final residual = 0, No Iterations 0
smoothSolver:  Solving for Ux, Initial residual = 0.0268711, Final residual = 0.000207709, No Iterations 1
smoothSolver:  Solving for Uy, Initial residual = 0.0505714, Final residual = 0.00026599, No Iterations 1
smoothSolver:  Solving for e, Initial residual = 0.140845, Final residual = 0.000925296, No Iterations 1
DICPCG:  Solving for p, Initial residual = 0.442539, Final residual = 7.95448e-07, No Iterations 64
diagonal:  Solving for rho, Initial residual = 0, Final residual = 0, No Iterations 0
time step continuity errors : sum local = 2.46179e-09, global = 1.75505e-11, cumulative = -9.31769e-10
PIMPLE: Iteration 2
smoothSolver:  Solving for Ux, Initial residual = 0.0017412, Final residual = 9.77876e-06, No Iterations 1
smoothSolver:  Solving for Uy, Initial residual = 0.00556341, Final residual = 3.38315e-05, No Iterations 1
smoothSolver:  Solving for e, Initial residual = 0.0250895, Final residual = 0.00023573, No Iterations 1
DICPCG:  Solving for p, Initial residual = 0.0215302, Final residual = 8.91241e-07, No Iterations 53
diagonal:  Solving for rho, Initial residual = 0, Final residual = 0, No Iterations 0
time step continuity errors : sum local = 2.90565e-09, global = 2.56524e-10, cumulative = -6.75245e-10
PIMPLE: Iteration 3
smoothSolver:  Solving for Ux, Initial residual = 0.000137954, Final residual = 9.12694e-07, No Iterations 1
smoothSolver:  Solving for Uy, Initial residual = 0.00111203, Final residual = 6.62429e-08, No Iterations 2
smoothSolver:  Solving for e, Initial residual = 0.00303961, Final residual = 4.11084e-07, No Iterations 2
DICPCG:  Solving for p, Initial residual = 0.00257626, Final residual = 9.30921e-07, No Iterations 43
diagonal:  Solving for rho, Initial residual = 0, Final residual = 0, No Iterations 0
time step continuity errors : sum local = 2.97401e-09, global = -4.5251e-10, cumulative = -1.12775e-09
smoothSolver:  Solving for k, Initial residual = 0.0384447, Final residual = 1.01547e-08, No Iterations 3
bounding k, min: 0 max: 5.82442 average: 2.07642
ExecutionTime = 2.58 s  ClockTime = 3 s

Courant Number mean: 0.239638 max: 0.362476
Time = 0.13

PIMPLE: Iteration 1
diagonal:  Solving for rho, Initial residual = 0, Final residual = 0, No Iterations 0
smoothSolver:  Solving for Ux, Initial residual = 0.0364485, Final residual = 0.000248602, No Iterations 1
smoothSolver:  Solving for Uy, Initial residual = 0.0370704, Final residual = 0.000208655, No Iterations 1
smoothSolver:  Solving for e, Initial residual = 0.119452, Final residual = 0.000747134, No Iterations 1
DICPCG:  Solving for p, Initial residual = 0.340243, Final residual = 9.26076e-07, No Iterations 64
diagonal:  Solving for rho, Initial residual = 0, Final residual = 0, No Iterations 0
time step continuity errors : sum local = 3.63343e-09, global = -2.76408e-10, cumulative = -1.40416e-09
PIMPLE: Iteration 2
smoothSolver:  Solving for Ux, Initial residual = 0.00137649, Final residual = 7.91499e-06, No Iterations 1
smoothSolver:  Solving for Uy, Initial residual = 0.00577564, Final residual = 3.37502e-05, No Iterations 1
smoothSolver:  Solving for e, Initial residual = 0.0300828, Final residual = 0.00026074, No Iterations 1
DICPCG:  Solving for p, Initial residual = 0.018659, Final residual = 8.21581e-07, No Iterations 52
diagonal:  Solving for rho, Initial residual = 0, Final residual = 0, No Iterations 0
time step continuity errors : sum local = 3.83077e-09, global = 5.44447e-10, cumulative = -8.59716e-10
PIMPLE: Iteration 3
smoothSolver:  Solving for Ux, Initial residual = 0.000169076, Final residual = 9.12982e-09, No Iterations 2
smoothSolver:  Solving for Uy, Initial residual = 0.00102297, Final residual = 6.11351e-08, No Iterations 2
smoothSolver:  Solving for e, Initial residual = 0.00226229, Final residual = 3.02091e-07, No Iterations 2
DICPCG:  Solving for p, Initial residual = 0.00138151, Final residual = 8.69066e-07, No Iterations 39
diagonal:  Solving for rho, Initial residual = 0, Final residual = 0, No Iterations 0
time step continuity errors : sum local = 3.98672e-09, global = -3.93226e-10, cumulative = -1.25294e-09
smoothSolver:  Solving for k, Initial residual = 0.0398516, Final residual = 1.13853e-08, No Iterations 3
bounding k, min: 0 max: 5.70929 average: 2.08734
ExecutionTime = 2.65 s  ClockTime = 3 s

Courant Number mean: 0.233052 max: 0.366376
Time = 0.135

PIMPLE: Iteration 1
diagonal:  Solving for rho, Initial residual = 0, Final residual = 0, No Iterations 0
smoothSolver:  Solving for Ux, Initial residual = 0.0453467, Final residual = 0.000282861, No Iterations 1
smoothSolver:  Solving for Uy, Initial residual = 0.0262038, Final residual = 0.000157392, No Iterations 1
smoothSolver:  Solving for e, Initial residual = 0.111875, Final residual = 0.000745719, No Iterations 1
DICPCG:  Solving for p, Initial residual = 0.271498, Final residual = 9.12954e-07, No Iterations 58
diagonal:  Solving for rho, Initial residual = 0, Final residual = 0, No Iterations 0
time step continuity errors : sum local = 4.43294e-09, global = 1.56583e-10, cumulative = -1.09636e-09
PIMPLE: Iteration 2
smoothSolver:  Solving for Ux, Initial residual = 0.000984129, Final residual = 6.17242e-06, No Iterations 1
smoothSolver:  Solving for Uy, Initial residual = 0.00483389, Final residual = 2.61481e-05, No Iterations 1
smoothSolver:  Solving for e, Initial residual = 0.0306201, Final residual = 0.000248168, No Iterations 1
DICPCG:  Solving for p, Initial residual = 0.0146749, Final residual = 9.41914e-07, No Iterations 51
diagonal:  Solving for rho, Initial residual = 0, Final residual = 0, No Iterations 0
time step continuity errors : sum local = 5.70132e-09, global = 8.09438e-10, cumulative = -2.8692e-10
PIMPLE: Iteration 3
smoothSolver:  Solving for Ux, Initial residual = 0.000168993, Final residual = 9.84492e-07, No Iterations 1
smoothSolver:  Solving for Uy, Initial residual = 0.000857132, Final residual = 4.82998e-08, No Iterations 2
smoothSolver:  Solving for e, Initial residual = 0.00174034, Final residual = 2.1411e-07, No Iterations 2
DICPCG:  Solving for p, Initial residual = 0.000918992, Final residual = 8.89233e-07, No Iterations 38
diagonal:  Solving for rho, Initial residual = 0, Final residual = 0, No Iterations 0
time step continuity errors : sum local = 5.30864e-09, global = 1.8957e-10, cumulative = -9.73505e-11
smoothSolver:  Solving for k, Initial residual = 0.0409886, Final residual = 1.07273e-08, No Iterations 3
bounding k, min: 0 max: 5.68277 average: 2.0735
ExecutionTime = 2.71 s  ClockTime = 3 s

Courant Number mean: 0.224675 max: 0.369031
Time = 0.14

PIMPLE: Iteration 1
diagonal:  Solving for rho, Initial residual = 0, Final residual = 0, No Iterations 0
smoothSolver:  Solving for Ux, Initial residual = 0.0498563, Final residual = 0.000283233, No Iterations 1
smoothSolver:  Solving for Uy, Initial residual = 0.0249753, Final residual = 0.000148972, No Iterations 1
smoothSolver:  Solving for e, Initial residual = 0.107775, Final residual = 0.000809402, No Iterations 1
DICPCG:  Solving for p, Initial residual = 0.218185, Final residual = 6.1936e-07, No Iterations 58
diagonal:  Solving for rho, Initial residual = 0, Final residual = 0, No Iterations 0
time step continuity errors : sum local = 3.66951e-09, global = 1.94497e-10, cumulative = 9.71466e-11
PIMPLE: Iteration 2
smoothSolver:  Solving for Ux, Initial residual = 0.000861781, Final residual = 6.17032e-06, No Iterations 1
smoothSolver:  Solving for Uy, Initial residual = 0.0034385, Final residual = 1.6866e-05, No Iterations 1
smoothSolver:  Solving for e, Initial residual = 0.0269037, Final residual = 0.000210976, No Iterations 1
DICPCG:  Solving for p, Initial residual = 0.0121177, Final residual = 8.68219e-07, No Iterations 50
diagonal:  Solving for rho, Initial residual = 0, Final residual = 0, No Iterations 0
time step continuity errors : sum local = 5.76636e-09, global = 1.00412e-09, cumulative = 1.10126e-09
PIMPLE: Iteration 3
smoothSolver:  Solving for Ux, Initial residual = 0.000144907, Final residual = 7.96325e-07, No Iterations 1
smoothSolver:  Solving for Uy, Initial residual = 0.000665985, Final residual = 3.15835e-08, No Iterations 2
smoothSolver:  Solving for e, Initial residual = 0.00173946, Final residual = 2.13012e-07, No Iterations 2
DICPCG:  Solving for p, Initial residual = 0.000910192, Final residual = 9.68763e-07, No Iterations 37
diagonal:  Solving for rho, Initial residual = 0, Final residual = 0, No Iterations 0
time step continuity errors : sum local = 6.36423e-09, global = 9.40574e-10, cumulative = 2.04184e-09
smoothSolver:  Solving for k, Initial residual = 0.0432806, Final residual = 9.11662e-09, No Iterations 3
bounding k, min: 0 max: 5.62736 average: 2.04007
ExecutionTime = 2.78 s  ClockTime = 3 s

Courant Number mean: 0.215321 max: 0.370269
Time = 0.145

PIMPLE: Iteration 1
diagonal:  Solving for rho, Initial residual = 0, Final residual = 0, No Iterations 0
smoothSolver:  Solving for Ux, Initial residual = 0.0521284, Final residual = 0.0002775, No Iterations 1
smoothSolver:  Solving for Uy, Initial residual = 0.029081, Final residual = 0.00015758, No Iterations 1
smoothSolver:  Solving for e, Initial residual = 0.103941, Final residual = 0.000845908, No Iterations 1
DICPCG:  Solving for p, Initial residual = 0.191542, Final residual = 8.72603e-07, No Iterations 54
diagonal:  Solving for rho, Initial residual = 0, Final residual = 0, No Iterations 0
time step continuity errors : sum local = 5.70488e-09, global = -5.74773e-11, cumulative = 1.98436e-09
PIMPLE: Iteration 2
smoothSolver:  Solving for Ux, Initial residual = 0.00145033, Final residual = 9.14364e-06, No Iterations 1
smoothSolver:  Solving for Uy, Initial residual = 0.0020476, Final residual = 9.97173e-06, No Iterations 1
smoothSolver:  Solving for e, Initial residual = 0.0194563, Final residual = 0.000152926, No Iterations 1
DICPCG:  Solving for p, Initial residual = 0.00833204, Final residual = 9.49312e-07, No Iterations 47
diagonal:  Solving for rho, Initial residual = 0, Final residual = 0, No Iterations 0
time step continuity errors : sum local = 6.41789e-09, global = 7.04832e-10, cumulative = 2.68919e-09
PIMPLE: Iteration 3
smoothSolver:  Solving for Ux, Initial residual = 9.68517e-05, Final residual = 5.13236e-07, No Iterations 1
smoothSolver:  Solving for Uy, Initial residual = 0.000495935, Final residual = 2.11168e-08, No Iterations 2
smoothSolver:  Solving for e, Initial residual = 0.00173023, Final residual = 2.22531e-07, No Iterations 2
DICPCG:  Solving for p, Initial residual = 0.000851147, Final residual = 7.33713e-07, No Iterations 37
diagonal:  Solving for rho, Initial residual = 0, Final residual = 0, No Iterations 0
time step continuity errors : sum local = 4.92426e-09, global = 7.46865e-10, cumulative = 3.43606e-09
smoothSolver:  Solving for k, Initial residual = 0.045413, Final residual = 8.25743e-09, No Iterations 3
bounding k, min: 0 max: 5.53514 average: 1.99149
ExecutionTime = 2.84 s  ClockTime = 4 s

Courant Number mean: 0.205799 max: 0.369304
Time = 0.15

PIMPLE: Iteration 1
diagonal:  Solving for rho, Initial residual = 0, Final residual = 0, No Iterations 0
smoothSolver:  Solving for Ux, Initial residual = 0.0521997, Final residual = 0.00027736, No Iterations 1
smoothSolver:  Solving for Uy, Initial residual = 0.0301435, Final residual = 0.000153199, No Iterations 1
smoothSolver:  Solving for e, Initial residual = 0.103278, Final residual = 0.000873122, No Iterations 1
DICPCG:  Solving for p, Initial residual = 0.184052, Final residual = 5.95027e-07, No Iterations 55
diagonal:  Solving for rho, Initial residual = 0, Final residual = 0, No Iterations 0
time step continuity errors : sum local = 4.11193e-09, global = 1.30586e-10, cumulative = 3.56664e-09
PIMPLE: Iteration 2
smoothSolver:  Solving for Ux, Initial residual = 0.00176408, Final residual = 1.02166e-05, No Iterations 1
smoothSolver:  Solving for Uy, Initial residual = 0.00161902, Final residual = 9.10581e-06, No Iterations 1
smoothSolver:  Solving for e, Initial residual = 0.012367, Final residual = 9.86595e-05, No Iterations 1
DICPCG:  Solving for p, Initial residual = 0.00645967, Final residual = 8.28709e-07, No Iterations 46
diagonal:  Solving for rho, Initial residual = 0, Final residual = 0, No Iterations 0
time step continuity errors : sum local = 5.77274e-09, global = 2.27235e-10, cumulative = 3.79388e-09
PIMPLE: Iteration 3
smoothSolver:  Solving for Ux, Initial residual = 6.89431e-05, Final residual = 4.27402e-07, No Iterations 1
smoothSolver:  Solving for Uy, Initial residual = 0.000428228, Final residual = 1.69608e-08, No Iterations 2
smoothSolver:  Solving for e, Initial residual = 0.00132081, Final residual = 1.69767e-07, No Iterations 2
DICPCG:  Solving for p, Initial residual = 0.000603361, Final residual = 7.76475e-07, No Iterations 34
diagonal:  Solving for rho, Initial residual = 0, Final residual = 0, No Iterations 0
time step continuity errors : sum local = 5.37448e-09, global = 7.51024e-10, cumulative = 4.5449e-09
smoothSolver:  Solving for k, Initial residual = 0.0470684, Final residual = 7.7658e-09, No Iterations 3
bounding k, min: 0 max: 5.39935 average: 1.93125
ExecutionTime = 3.03 s  ClockTime = 4 s

Courant Number mean: 0.19673 max: 0.365139
Time = 0.155

PIMPLE: Iteration 1
diagonal:  Solving for rho, Initial residual = 0, Final residual = 0, No Iterations 0
smoothSolver:  Solving for Ux, Initial residual = 0.0498831, Final residual = 0.000275602, No Iterations 1
smoothSolver:  Solving for Uy, Initial residual = 0.0270738, Final residual = 0.000132807, No Iterations 1
smoothSolver:  Solving for e, Initial residual = 0.104431, Final residual = 0.000864075, No Iterations 1
DICPCG:  Solving for p, Initial residual = 0.17561, Final residual = 4.76554e-07, No Iterations 56
diagonal:  Solving for rho, Initial residual = 0, Final residual = 0, No Iterations 0
time step continuity errors : sum local = 3.4124e-09, global = 1.86905e-10, cumulative = 4.73181e-09
PIMPLE: Iteration 2
smoothSolver:  Solving for Ux, Initial residual = 0.00171062, Final residual = 9.36566e-06, No Iterations 1
smoothSolver:  Solving for Uy, Initial residual = 0.00192673, Final residual = 1.01651e-05, No Iterations 1
smoothSolver:  Solving for e, Initial residual = 0.0134966, Final residual = 0.000120278, No Iterations 1
DICPCG:  Solving for p, Initial residual = 0.00682932, Final residual = 9.68407e-07, No Iterations 42
diagonal:  Solving for rho, Initial residual = 0, Final residual = 0, No Iterations 0
time step continuity errors : sum local = 6.85821e-09, global = -4.3722e-10, cumulative = 4.29459e-09
PIMPLE: Iteration 3
smoothSolver:  Solving for Ux, Initial residual = 0.000105063, Final residual = 5.90203e-07, No Iterations 1
smoothSolver:  Solving for Uy, Initial residual = 0.000448446, Final residual = 1.63256e-08, No Iterations 2
smoothSolver:  Solving for e, Initial residual = 0.000942699, Final residual = 1.44061e-07, No Iterations 2
DICPCG:  Solving for p, Initial residual = 0.000419476, Final residual = 8.61318e-07, No Iterations 33
diagonal:  Solving for rho, Initial residual = 0, Final residual = 0, No Iterations 0
time step continuity errors : sum local = 6.06566e-09, global = 3.0291e-10, cumulative = 4.5975e-09
smoothSolver:  Solving for k, Initial residual = 0.0503003, Final residual = 7.7792e-09, No Iterations 3
bounding k, min: 0 max: 5.21268 average: 1.8626
ExecutionTime = 3.09 s  ClockTime = 4 s

Courant Number mean: 0.188415 max: 0.356873
Time = 0.16

PIMPLE: Iteration 1
diagonal:  Solving for rho, Initial residual = 0, Final residual = 0, No Iterations 0
smoothSolver:  Solving for Ux, Initial residual = 0.0514494, Final residual = 0.000294973, No Iterations 1
smoothSolver:  Solving for Uy, Initial residual = 0.0217957, Final residual = 0.000105324, No Iterations 1
smoothSolver:  Solving for e, Initial residual = 0.0950595, Final residual = 0.000760225, No Iterations 1
DICPCG:  Solving for p, Initial residual = 0.148434, Final residual = 6.05336e-07, No Iterations 55
diagonal:  Solving for rho, Initial residual = 0, Final residual = 0, No Iterations 0
time step continuity errors : sum local = 4.36934e-09, global = 6.31427e-11, cumulative = 4.66064e-09
PIMPLE: Iteration 2
smoothSolver:  Solving for Ux, Initial residual = 0.00142305, Final residual = 7.65129e-06, No Iterations 1
smoothSolver:  Solving for Uy, Initial residual = 0.00243113, Final residual = 1.1709e-05, No Iterations 1
smoothSolver:  Solving for e, Initial residual = 0.0184824, Final residual = 0.000140314, No Iterations 1
DICPCG:  Solving for p, Initial residual = 0.00892129, Final residual = 9.70735e-07, No Iterations 45
diagonal:  Solving for rho, Initial residual = 0, Final residual = 0, No Iterations 0
time step continuity errors : sum local = 6.79439e-09, global = -2.10708e-10, cumulative = 4.44993e-09
PIMPLE: Iteration 3
smoothSolver:  Solving for Ux, Initial residual = 0.000135272, Final residual = 6.62787e-07, No Iterations 1
smoothSolver:  Solving for Uy, Initial residual = 0.000439847, Final residual = 1.43567e-08, No Iterations 2
smoothSolver:  Solving for e, Initial residual = 0.000982073, Final residual = 1.38554e-07, No Iterations 2
DICPCG:  Solving for p, Initial residual = 0.000518714, Final residual = 7.46228e-07, No Iterations 35
diagonal:  Solving for rho, Initial residual = 0, Final residual = 0, No Iterations 0
time step continuity errors : sum local = 5.20251e-09, global = 1.69125e-10, cumulative = 4.61906e-09
smoothSolver:  Solving for k, Initial residual = 0.0536498, Final residual = 8.9314e-09, No Iterations 3
bounding k, min: 0 max: 4.96921 average: 1.78902
ExecutionTime = 3.16 s  ClockTime = 4 s

Courant Number mean: 0.180814 max: 0.343897
Time = 0.165

PIMPLE: Iteration 1
diagonal:  Solving for rho, Initial residual = 0, Final residual = 0, No Iterations 0
smoothSolver:  Solving for Ux, Initial residual = 0.0605075, Final residual = 0.000330506, No Iterations 1
smoothSolver:  Solving for Uy, Initial residual = 0.019593, Final residual = 9.42365e-05, No Iterations 1
smoothSolver:  Solving for e, Initial residual = 0.0734221, Final residual = 0.000572478, No Iterations 1
DICPCG:  Solving for p, Initial residual = 0.107125, Final residual = 6.81484e-07, No Iterations 54
diagonal:  Solving for rho, Initial residual = 0, Final residual = 0, No Iterations 0
time step continuity errors : sum local = 4.83265e-09, global = -5.5334e-11, cumulative = 4.56372e-09
PIMPLE: Iteration 2
smoothSolver:  Solving for Ux, Initial residual = 0.00117692, Final residual = 6.6688e-06, No Iterations 1
smoothSolver:  Solving for Uy, Initial residual = 0.00280447, Final residual = 1.30648e-05, No Iterations 1
smoothSolver:  Solving for e, Initial residual = 0.0226928, Final residual = 0.000165625, No Iterations 1
DICPCG:  Solving for p, Initial residual = 0.0108493, Final residual = 9.36488e-07, No Iterations 47
diagonal:  Solving for rho, Initial residual = 0, Final residual = 0, No Iterations 0
time step continuity errors : sum local = 6.39262e-09, global = 9.29218e-11, cumulative = 4.65664e-09
PIMPLE: Iteration 3
smoothSolver:  Solving for Ux, Initial residual = 0.000135983, Final residual = 6.33536e-07, No Iterations 1
smoothSolver:  Solving for Uy, Initial residual = 0.000384941, Final residual = 1.32615e-08, No Iterations 2
smoothSolver:  Solving for e, Initial residual = 0.00121693, Final residual = 1.47233e-07, No Iterations 2
DICPCG:  Solving for p, Initial residual = 0.000663692, Final residual = 8.86726e-07, No Iterations 33
diagonal:  Solving for rho, Initial residual = 0, Final residual = 0, No Iterations 0
time step continuity errors : sum local = 6.03124e-09, global = 8.01118e-10, cumulative = 5.45776e-09
smoothSolver:  Solving for k, Initial residual = 0.0558424, Final residual = 9.5049e-09, No Iterations 3
bounding k, min: 0 max: 4.66826 average: 1.7141
ExecutionTime = 3.21 s  ClockTime = 4 s

Courant Number mean: 0.173634 max: 0.326063
Time = 0.17

PIMPLE: Iteration 1
diagonal:  Solving for rho, Initial residual = 0, Final residual = 0, No Iterations 0
smoothSolver:  Solving for Ux, Initial residual = 0.0651379, Final residual = 0.000339559, No Iterations 1
smoothSolver:  Solving for Uy, Initial residual = 0.0193056, Final residual = 9.05727e-05, No Iterations 1
smoothSolver:  Solving for e, Initial residual = 0.0494962, Final residual = 0.000384389, No Iterations 1
DICPCG:  Solving for p, Initial residual = 0.0790093, Final residual = 8.69434e-07, No Iterations 54
diagonal:  Solving for rho, Initial residual = 0, Final residual = 0, No Iterations 0
time step continuity errors : sum local = 5.95913e-09, global = -3.3152e-10, cumulative = 5.12624e-09
PIMPLE: Iteration 2
smoothSolver:  Solving for Ux, Initial residual = 0.00112906, Final residual = 6.06626e-06, No Iterations 1
smoothSolver:  Solving for Uy, Initial residual = 0.00270787, Final residual = 1.26653e-05, No Iterations 1
smoothSolver:  Solving for e, Initial residual = 0.023974, Final residual = 0.000185826, No Iterations 1
DICPCG:  Solving for p, Initial residual = 0.011389, Final residual = 9.46592e-07, No Iterations 46
diagonal:  Solving for rho, Initial residual = 0, Final residual = 0, No Iterations 0
time step continuity errors : sum local = 6.22844e-09, global = 8.96235e-11, cumulative = 5.21587e-09
PIMPLE: Iteration 3
smoothSolver:  Solving for Ux, Initial residual = 0.000120481, Final residual = 5.7406e-07, No Iterations 1
smoothSolver:  Solving for Uy, Initial residual = 0.000358182, Final residual = 1.3285e-08, No Iterations 2
smoothSolver:  Solving for e, Initial residual = 0.00115861, Final residual = 1.31657e-07, No Iterations 2
DICPCG:  Solving for p, Initial residual = 0.000600236, Final residual = 8.21253e-07, No Iterations 29
diagonal:  Solving for rho, Initial residual = 0, Final residual = 0, No Iterations 0
time step continuity errors : sum local = 5.40714e-09, global = 6.65347e-10, cumulative = 5.88121e-09
smoothSolver:  Solving for k, Initial residual = 0.0583629, Final residual = 9.18221e-09, No Iterations 3
bounding k, min: 0 max: 4.31755 average: 1.64084
ExecutionTime = 3.28 s  ClockTime = 4 s

Courant Number mean: 0.166497 max: 0.303846
Time = 0.175

PIMPLE: Iteration 1
diagonal:  Solving for rho, Initial residual = 0, Final residual = 0, No Iterations 0
smoothSolver:  Solving for Ux, Initial residual = 0.063012, Final residual = 0.000315222, No Iterations 1
[...]
smoothSolver:  Solving for Ux, Initial residual = 0.0103125, Final residual = 2.14883e-05, No Iterations 1
smoothSolver:  Solving for Uy, Initial residual = 0.0119839, Final residual = 3.47713e-05, No Iterations 1
smoothSolver:  Solving for e, Initial residual = 0.0319036, Final residual = 0.000133748, No Iterations 1
DICPCG:  Solving for p, Initial residual = 0.662682, Final residual = 8.08239e-07, No Iterations 65
diagonal:  Solving for rho, Initial residual = 0, Final residual = 0, No Iterations 0
time step continuity errors : sum local = 6.22495e-10, global = 2.38794e-11, cumulative = 2.93955e-09
PIMPLE: Iteration 2
smoothSolver:  Solving for Ux, Initial residual = 0.000557426, Final residual = 1.29733e-06, No Iterations 1
smoothSolver:  Solving for Uy, Initial residual = 0.000250379, Final residual = 7.69846e-07, No Iterations 1
smoothSolver:  Solving for e, Initial residual = 0.00102444, Final residual = 5.14892e-06, No Iterations 1
DICPCG:  Solving for p, Initial residual = 0.00791298, Final residual = 8.95387e-07, No Iterations 49
diagonal:  Solving for rho, Initial residual = 0, Final residual = 0, No Iterations 0
time step continuity errors : sum local = 5.52336e-10, global = 7.62279e-11, cumulative = 3.01577e-09
PIMPLE: Iteration 3
smoothSolver:  Solving for Ux, Initial residual = 1.26424e-05, Final residual = 3.15868e-08, No Iterations 1
smoothSolver:  Solving for Uy, Initial residual = 0.000249271, Final residual = 6.60882e-07, No Iterations 1
smoothSolver:  Solving for e, Initial residual = 0.000212183, Final residual = 9.80853e-07, No Iterations 1
DICPCG:  Solving for p, Initial residual = 0.00198512, Final residual = 9.79724e-07, No Iterations 41
diagonal:  Solving for rho, Initial residual = 0, Final residual = 0, No Iterations 0
time step continuity errors : sum local = 6.06557e-10, global = 6.21024e-11, cumulative = 3.07788e-09
smoothSolver:  Solving for k, Initial residual = 0.0345675, Final residual = 2.46288e-07, No Iterations 2
bounding k, min: 0 max: 2.02021 average: 0.969116
ExecutionTime = 8.49 s  ClockTime = 9 s

Courant Number mean: 0.11983 max: 0.245986
Time = 0.465

PIMPLE: Iteration 1
diagonal:  Solving for rho, Initial residual = 0, Final residual = 0, No Iterations 0
smoothSolver:  Solving for Ux, Initial residual = 0.00688104, Final residual = 1.84482e-05, No Iterations 1
smoothSolver:  Solving for Uy, Initial residual = 0.0108516, Final residual = 3.10664e-05, No Iterations 1
smoothSolver:  Solving for e, Initial residual = 0.0312799, Final residual = 0.000128623, No Iterations 1
DICPCG:  Solving for p, Initial residual = 0.479508, Final residual = 8.44718e-07, No Iterations 63
diagonal:  Solving for rho, Initial residual = 0, Final residual = 0, No Iterations 0
time step continuity errors : sum local = 9.01518e-10, global = 2.51657e-11, cumulative = 3.10304e-09
PIMPLE: Iteration 2
smoothSolver:  Solving for Ux, Initial residual = 0.000565321, Final residual = 1.2747e-06, No Iterations 1
smoothSolver:  Solving for Uy, Initial residual = 0.00026061, Final residual = 7.18597e-07, No Iterations 1
smoothSolver:  Solving for e, Initial residual = 0.000795008, Final residual = 3.35695e-06, No Iterations 1
DICPCG:  Solving for p, Initial residual = 0.00361868, Final residual = 9.50604e-07, No Iterations 44
diagonal:  Solving for rho, Initial residual = 0, Final residual = 0, No Iterations 0
time step continuity errors : sum local = 1.48471e-09, global = -3.29361e-12, cumulative = 3.09975e-09
PIMPLE: Iteration 3
smoothSolver:  Solving for Ux, Initial residual = 1.38461e-05, Final residual = 3.28018e-08, No Iterations 1
smoothSolver:  Solving for Uy, Initial residual = 0.000245967, Final residual = 6.29998e-07, No Iterations 1
smoothSolver:  Solving for e, Initial residual = 0.000199405, Final residual = 9.20701e-07, No Iterations 1
DICPCG:  Solving for p, Initial residual = 0.000721932, Final residual = 8.78891e-07, No Iterations 37
diagonal:  Solving for rho, Initial residual = 0, Final residual = 0, No Iterations 0
time step continuity errors : sum local = 1.36844e-09, global = 1.45302e-10, cumulative = 3.24505e-09
smoothSolver:  Solving for k, Initial residual = 0.0321406, Final residual = 2.21121e-07, No Iterations 2
bounding k, min: 0 max: 2.0205 average: 0.946938
ExecutionTime = 8.55 s  ClockTime = 10 s

Courant Number mean: 0.120573 max: 0.245984
Time = 0.47

PIMPLE: Iteration 1
diagonal:  Solving for rho, Initial residual = 0, Final residual = 0, No Iterations 0
smoothSolver:  Solving for Ux, Initial residual = 0.0100244, Final residual = 2.64715e-05, No Iterations 1
smoothSolver:  Solving for Uy, Initial residual = 0.00940904, Final residual = 2.66575e-05, No Iterations 1
smoothSolver:  Solving for e, Initial residual = 0.0305179, Final residual = 0.000122602, No Iterations 1
DICPCG:  Solving for p, Initial residual = 0.256056, Final residual = 7.47839e-07, No Iterations 60
diagonal:  Solving for rho, Initial residual = 0, Final residual = 0, No Iterations 0
time step continuity errors : sum local = 1.45986e-09, global = 3.08508e-11, cumulative = 3.2759e-09
PIMPLE: Iteration 2
smoothSolver:  Solving for Ux, Initial residual = 0.000519416, Final residual = 1.13237e-06, No Iterations 1
smoothSolver:  Solving for Uy, Initial residual = 0.000355637, Final residual = 9.41206e-07, No Iterations 1
smoothSolver:  Solving for e, Initial residual = 0.00198481, Final residual = 8.41913e-06, No Iterations 1
DICPCG:  Solving for p, Initial residual = 0.00486331, Final residual = 8.37232e-07, No Iterations 44
diagonal:  Solving for rho, Initial residual = 0, Final residual = 0, No Iterations 0
time step continuity errors : sum local = 2.04382e-09, global = -3.50666e-10, cumulative = 2.92523e-09
PIMPLE: Iteration 3
smoothSolver:  Solving for Ux, Initial residual = 2.55013e-05, Final residual = 5.70801e-08, No Iterations 1
smoothSolver:  Solving for Uy, Initial residual = 0.00022957, Final residual = 5.74836e-07, No Iterations 1
smoothSolver:  Solving for e, Initial residual = 0.000171014, Final residual = 7.80314e-07, No Iterations 1
DICPCG:  Solving for p, Initial residual = 0.000390805, Final residual = 9.22724e-07, No Iterations 33
diagonal:  Solving for rho, Initial residual = 0, Final residual = 0, No Iterations 0
time step continuity errors : sum local = 2.24208e-09, global = 2.47672e-10, cumulative = 3.17291e-09
smoothSolver:  Solving for k, Initial residual = 0.0291953, Final residual = 2.00491e-07, No Iterations 2
bounding k, min: 0 max: 2.0213 average: 0.927502
ExecutionTime = 8.62 s  ClockTime = 10 s

Courant Number mean: 0.122106 max: 0.246004
Time = 0.475

PIMPLE: Iteration 1
diagonal:  Solving for rho, Initial residual = 0, Final residual = 0, No Iterations 0
smoothSolver:  Solving for Ux, Initial residual = 0.0161816, Final residual = 3.80716e-05, No Iterations 1
smoothSolver:  Solving for Uy, Initial residual = 0.00778277, Final residual = 2.17988e-05, No Iterations 1
smoothSolver:  Solving for e, Initial residual = 0.029653, Final residual = 0.000116089, No Iterations 1
DICPCG:  Solving for p, Initial residual = 0.178818, Final residual = 6.90395e-07, No Iterations 58
diagonal:  Solving for rho, Initial residual = 0, Final residual = 0, No Iterations 0
time step continuity errors : sum local = 1.90246e-09, global = 5.29116e-11, cumulative = 3.22582e-09
PIMPLE: Iteration 2
smoothSolver:  Solving for Ux, Initial residual = 0.000459355, Final residual = 9.64681e-07, No Iterations 1
smoothSolver:  Solving for Uy, Initial residual = 0.000432117, Final residual = 1.10156e-06, No Iterations 1
smoothSolver:  Solving for e, Initial residual = 0.00287518, Final residual = 1.20615e-05, No Iterations 1
DICPCG:  Solving for p, Initial residual = 0.00517799, Final residual = 8.12853e-07, No Iterations 44
diagonal:  Solving for rho, Initial residual = 0, Final residual = 0, No Iterations 0
time step continuity errors : sum local = 2.58252e-09, global = -2.52284e-10, cumulative = 2.97353e-09
PIMPLE: Iteration 3
smoothSolver:  Solving for Ux, Initial residual = 3.39843e-05, Final residual = 7.28883e-08, No Iterations 1
smoothSolver:  Solving for Uy, Initial residual = 0.000202596, Final residual = 4.99347e-07, No Iterations 1
smoothSolver:  Solving for e, Initial residual = 0.000137305, Final residual = 6.11604e-07, No Iterations 1
DICPCG:  Solving for p, Initial residual = 0.000255102, Final residual = 8.53121e-07, No Iterations 31
diagonal:  Solving for rho, Initial residual = 0, Final residual = 0, No Iterations 0
time step continuity errors : sum local = 2.69671e-09, global = 3.12895e-10, cumulative = 3.28643e-09
smoothSolver:  Solving for k, Initial residual = 0.0300534, Final residual = 1.94262e-07, No Iterations 2
bounding k, min: 0 max: 2.02248 average: 0.911125
ExecutionTime = 8.81 s  ClockTime = 10 s

Courant Number mean: 0.124331 max: 0.246041
Time = 0.48

PIMPLE: Iteration 1
diagonal:  Solving for rho, Initial residual = 0, Final residual = 0, No Iterations 0
smoothSolver:  Solving for Ux, Initial residual = 0.021618, Final residual = 4.76535e-05, No Iterations 1
smoothSolver:  Solving for Uy, Initial residual = 0.00671872, Final residual = 1.86788e-05, No Iterations 1
smoothSolver:  Solving for e, Initial residual = 0.0289535, Final residual = 0.000111152, No Iterations 1
DICPCG:  Solving for p, Initial residual = 0.143122, Final residual = 8.17037e-07, No Iterations 56
diagonal:  Solving for rho, Initial residual = 0, Final residual = 0, No Iterations 0
time step continuity errors : sum local = 2.78126e-09, global = 1.07766e-10, cumulative = 3.3942e-09
PIMPLE: Iteration 2
smoothSolver:  Solving for Ux, Initial residual = 0.000386395, Final residual = 7.80055e-07, No Iterations 1
smoothSolver:  Solving for Uy, Initial residual = 0.000462951, Final residual = 1.16516e-06, No Iterations 1
smoothSolver:  Solving for e, Initial residual = 0.00327621, Final residual = 1.35041e-05, No Iterations 1
DICPCG:  Solving for p, Initial residual = 0.0049243, Final residual = 9.82184e-07, No Iterations 43
diagonal:  Solving for rho, Initial residual = 0, Final residual = 0, No Iterations 0
time step continuity errors : sum local = 3.66544e-09, global = -2.25667e-10, cumulative = 3.16853e-09
PIMPLE: Iteration 3
smoothSolver:  Solving for Ux, Initial residual = 3.7079e-05, Final residual = 7.65177e-08, No Iterations 1
smoothSolver:  Solving for Uy, Initial residual = 0.00016979, Final residual = 4.30045e-07, No Iterations 1
smoothSolver:  Solving for e, Initial residual = 0.000125963, Final residual = 5.40825e-07, No Iterations 1
DICPCG:  Solving for p, Initial residual = 0.000221591, Final residual = 9.20287e-07, No Iterations 29
diagonal:  Solving for rho, Initial residual = 0, Final residual = 0, No Iterations 0
time step continuity errors : sum local = 3.41748e-09, global = 2.24727e-10, cumulative = 3.39326e-09
smoothSolver:  Solving for k, Initial residual = 0.0325919, Final residual = 1.98813e-07, No Iterations 2
bounding k, min: 0 max: 2.0239 average: 0.898092
ExecutionTime = 8.87 s  ClockTime = 10 s

Courant Number mean: 0.127124 max: 0.246093
Time = 0.485

PIMPLE: Iteration 1
diagonal:  Solving for rho, Initial residual = 0, Final residual = 0, No Iterations 0
smoothSolver:  Solving for Ux, Initial residual = 0.0260687, Final residual = 5.44892e-05, No Iterations 1
smoothSolver:  Solving for Uy, Initial residual = 0.00652369, Final residual = 1.77978e-05, No Iterations 1
smoothSolver:  Solving for e, Initial residual = 0.0281363, Final residual = 0.000105554, No Iterations 1
DICPCG:  Solving for p, Initial residual = 0.122254, Final residual = 6.21577e-07, No Iterations 54
diagonal:  Solving for rho, Initial residual = 0, Final residual = 0, No Iterations 0
time step continuity errors : sum local = 2.40648e-09, global = 8.25412e-11, cumulative = 3.4758e-09
PIMPLE: Iteration 2
smoothSolver:  Solving for Ux, Initial residual = 0.000302466, Final residual = 5.8614e-07, No Iterations 1
smoothSolver:  Solving for Uy, Initial residual = 0.000444244, Final residual = 1.12242e-06, No Iterations 1
smoothSolver:  Solving for e, Initial residual = 0.00314719, Final residual = 1.27278e-05, No Iterations 1
DICPCG:  Solving for p, Initial residual = 0.00426265, Final residual = 8.53635e-07, No Iterations 43
diagonal:  Solving for rho, Initial residual = 0, Final residual = 0, No Iterations 0
time step continuity errors : sum local = 3.4959e-09, global = -1.2871e-10, cumulative = 3.34709e-09
PIMPLE: Iteration 3
smoothSolver:  Solving for Ux, Initial residual = 3.43054e-05, Final residual = 6.85333e-08, No Iterations 1
smoothSolver:  Solving for Uy, Initial residual = 0.000143874, Final residual = 3.89209e-07, No Iterations 1
smoothSolver:  Solving for e, Initial residual = 0.00012758, Final residual = 5.50696e-07, No Iterations 1
DICPCG:  Solving for p, Initial residual = 0.000206637, Final residual = 8.70294e-07, No Iterations 29
diagonal:  Solving for rho, Initial residual = 0, Final residual = 0, No Iterations 0
time step continuity errors : sum local = 3.54852e-09, global = -3.2028e-10, cumulative = 3.02681e-09
smoothSolver:  Solving for k, Initial residual = 0.0351157, Final residual = 2.16951e-07, No Iterations 2
bounding k, min: 0 max: 2.02541 average: 0.888633
ExecutionTime = 8.94 s  ClockTime = 10 s

Courant Number mean: 0.130346 max: 0.246155
Time = 0.49

PIMPLE: Iteration 1
diagonal:  Solving for rho, Initial residual = 0, Final residual = 0, No Iterations 0
smoothSolver:  Solving for Ux, Initial residual = 0.0295876, Final residual = 5.86635e-05, No Iterations 1
smoothSolver:  Solving for Uy, Initial residual = 0.00648409, Final residual = 1.78066e-05, No Iterations 1
smoothSolver:  Solving for e, Initial residual = 0.0269315, Final residual = 9.8873e-05, No Iterations 1
DICPCG:  Solving for p, Initial residual = 0.107227, Final residual = 5.90391e-07, No Iterations 54
diagonal:  Solving for rho, Initial residual = 0, Final residual = 0, No Iterations 0
time step continuity errors : sum local = 2.4581e-09, global = 1.90927e-11, cumulative = 3.0459e-09
PIMPLE: Iteration 2
smoothSolver:  Solving for Ux, Initial residual = 0.000270391, Final residual = 5.00109e-07, No Iterations 1
smoothSolver:  Solving for Uy, Initial residual = 0.000376601, Final residual = 9.65757e-07, No Iterations 1
smoothSolver:  Solving for e, Initial residual = 0.0025727, Final residual = 1.02424e-05, No Iterations 1
DICPCG:  Solving for p, Initial residual = 0.0033097, Final residual = 8.83372e-07, No Iterations 42
diagonal:  Solving for rho, Initial residual = 0, Final residual = 0, No Iterations 0
time step continuity errors : sum local = 3.7886e-09, global = -1.63708e-10, cumulative = 2.88219e-09
PIMPLE: Iteration 3
smoothSolver:  Solving for Ux, Initial residual = 2.63419e-05, Final residual = 5.16276e-08, No Iterations 1
smoothSolver:  Solving for Uy, Initial residual = 0.000141763, Final residual = 3.97995e-07, No Iterations 1
smoothSolver:  Solving for e, Initial residual = 0.000125254, Final residual = 5.44922e-07, No Iterations 1
DICPCG:  Solving for p, Initial residual = 0.00019203, Final residual = 8.59233e-07, No Iterations 28
diagonal:  Solving for rho, Initial residual = 0, Final residual = 0, No Iterations 0
time step continuity errors : sum local = 3.67179e-09, global = -6.98643e-10, cumulative = 2.18355e-09
smoothSolver:  Solving for k, Initial residual = 0.0373375, Final residual = 2.43544e-07, No Iterations 2
bounding k, min: 0 max: 2.02688 average: 0.88289
ExecutionTime = 8.99 s  ClockTime = 10 s

Courant Number mean: 0.133854 max: 0.246221
Time = 0.495

PIMPLE: Iteration 1
diagonal:  Solving for rho, Initial residual = 0, Final residual = 0, No Iterations 0
smoothSolver:  Solving for Ux, Initial residual = 0.0318273, Final residual = 6.03787e-05, No Iterations 1
smoothSolver:  Solving for Uy, Initial residual = 0.00667587, Final residual = 1.83237e-05, No Iterations 1
smoothSolver:  Solving for e, Initial residual = 0.0253383, Final residual = 9.0373e-05, No Iterations 1
DICPCG:  Solving for p, Initial residual = 0.0935353, Final residual = 7.87601e-07, No Iterations 53
diagonal:  Solving for rho, Initial residual = 0, Final residual = 0, No Iterations 0
time step continuity errors : sum local = 3.39537e-09, global = 5.67728e-11, cumulative = 2.24032e-09
PIMPLE: Iteration 2
smoothSolver:  Solving for Ux, Initial residual = 0.0003477, Final residual = 6.22758e-07, No Iterations 1
smoothSolver:  Solving for Uy, Initial residual = 0.000316811, Final residual = 7.9717e-07, No Iterations 1
smoothSolver:  Solving for e, Initial residual = 0.00184207, Final residual = 7.25369e-06, No Iterations 1
DICPCG:  Solving for p, Initial residual = 0.00245245, Final residual = 8.92321e-07, No Iterations 41
diagonal:  Solving for rho, Initial residual = 0, Final residual = 0, No Iterations 0
time step continuity errors : sum local = 3.88767e-09, global = -2.699e-10, cumulative = 1.97042e-09
PIMPLE: Iteration 3
smoothSolver:  Solving for Ux, Initial residual = 1.56228e-05, Final residual = 3.11809e-08, No Iterations 1
smoothSolver:  Solving for Uy, Initial residual = 0.000155666, Final residual = 4.29677e-07, No Iterations 1
smoothSolver:  Solving for e, Initial residual = 0.000118173, Final residual = 5.26012e-07, No Iterations 1
DICPCG:  Solving for p, Initial residual = 0.000175486, Final residual = 9.76108e-07, No Iterations 28
diagonal:  Solving for rho, Initial residual = 0, Final residual = 0, No Iterations 0
time step continuity errors : sum local = 4.24215e-09, global = -8.01013e-10, cumulative = 1.16941e-09
smoothSolver:  Solving for k, Initial residual = 0.0392763, Final residual = 2.70074e-07, No Iterations 2
bounding k, min: 0 max: 2.02817 average: 0.880893
ExecutionTime = 9.06 s  ClockTime = 10 s

Courant Number mean: 0.137516 max: 0.246285
Time = 0.5

PIMPLE: Iteration 1
diagonal:  Solving for rho, Initial residual = 0, Final residual = 0, No Iterations 0
smoothSolver:  Solving for Ux, Initial residual = 0.0328754, Final residual = 5.98672e-05, No Iterations 1
smoothSolver:  Solving for Uy, Initial residual = 0.00689939, Final residual = 1.88381e-05, No Iterations 1
smoothSolver:  Solving for e, Initial residual = 0.0230073, Final residual = 8.06526e-05, No Iterations 1
DICPCG:  Solving for p, Initial residual = 0.0785701, Final residual = 6.99776e-07, No Iterations 52
diagonal:  Solving for rho, Initial residual = 0, Final residual = 0, No Iterations 0
time step continuity errors : sum local = 3.05205e-09, global = 4.29638e-11, cumulative = 1.21237e-09
PIMPLE: Iteration 2
smoothSolver:  Solving for Ux, Initial residual = 0.000385306, Final residual = 6.75585e-07, No Iterations 1
smoothSolver:  Solving for Uy, Initial residual = 0.000316988, Final residual = 7.73068e-07, No Iterations 1
smoothSolver:  Solving for e, Initial residual = 0.00224744, Final residual = 8.64035e-06, No Iterations 1
DICPCG:  Solving for p, Initial residual = 0.00309105, Final residual = 8.25414e-07, No Iterations 39
diagonal:  Solving for rho, Initial residual = 0, Final residual = 0, No Iterations 0
time step continuity errors : sum local = 3.59559e-09, global = -2.41973e-11, cumulative = 1.18817e-09
PIMPLE: Iteration 3
smoothSolver:  Solving for Ux, Initial residual = 1.10496e-05, Final residual = 2.17239e-08, No Iterations 1
smoothSolver:  Solving for Uy, Initial residual = 0.000170189, Final residual = 4.43597e-07, No Iterations 1
smoothSolver:  Solving for e, Initial residual = 0.000112593, Final residual = 5.14289e-07, No Iterations 1
DICPCG:  Solving for p, Initial residual = 0.000164934, Final residual = 9.17771e-07, No Iterations 29
diagonal:  Solving for rho, Initial residual = 0, Final residual = 0, No Iterations 0
time step continuity errors : sum local = 3.99249e-09, global = -4.44331e-10, cumulative = 7.43843e-10
smoothSolver:  Solving for k, Initial residual = 0.041808, Final residual = 2.93e-07, No Iterations 2
bounding k, min: 0 max: 2.0292 average: 0.88257
ExecutionTime = 9.25 s  ClockTime = 10 s

End

