/*---------------------------------------------------------------------------*\
  =========                 |
  \\      /  F ield         | OpenFOAM: The Open Source CFD Toolbox
   \\    /   O peration     | Website:  https://openfoam.org
    \\  /    A nd           | Version:  7
     \\/     M anipulation  |
\*---------------------------------------------------------------------------*/
Build  : 7-49b2b3b8b082
Exec   : rhoPimpleFoam
Date   : Apr 06 2023
Time   : 14:24:03
Host   : "c408-094.stampede2.tacc.utexas.edu"
PID    : 131304
I/O    : uncollated
Case   : /home1/07645/eesha_n/SeniorDesign/CooliestModel/src/CFD/circuit_validation
nProcs : 1
sigFpe : Enabling floating point exception trapping (FOAM_SIGFPE).
fileModificationChecking : Monitoring run-time modified files using timeStampMaster (fileModificationSkew 10)
allowSystemOperations : Allowing user-supplied system call operations

// * * * * * * * * * * * * * * * * * * * * * * * * * * * * * * * * * * * * * //
Create time

Create mesh for time = 0


PIMPLE: No convergence criteria found


PIMPLE: No corrector convergence criteria found
        Calculations will do 3 corrections


PIMPLE: Operating solver in transient mode with 3 outer correctors


Reading thermophysical properties

Selecting thermodynamics package 
{
    type            hePsiThermo;
    mixture         pureMixture;
    transport       const;
    thermo          eConst;
    equationOfState perfectGas;
    specie          specie;
    energy          sensibleInternalEnergy;
}

--> FOAM Warning : 
    From function Foam::Field<Type>::Field(const Foam::word &, const Foam::dictionary &, int) [with Type = double]
    in file /home1/apps/intel18/impi18_0/OpenFOAM/OpenFOAM-7/src/OpenFOAM/lnInclude/Field.C at line 235
    Reading "/home1/07645/eesha_n/SeniorDesign/CooliestModel/src/CFD/circuit_validation/0/T.boundaryField.lowerWall" from line 44 to line 19
    expected keyword 'uniform' or 'nonuniform', assuming deprecated Field format from Foam version 2.0.
Reading field U

Reading/calculating face flux field phi

pressureControl
    pMax 200000
    pMin 50000

Creating turbulence model

Selecting turbulence model type LES
Selecting LES turbulence model kEqn
Selecting LES delta type cubeRootVol
--> FOAM Warning : 
    From function void Foam::LESModels::cubeRootVolDelta::calcDelta()
    in file LES/LESdeltas/cubeRootVolDelta/cubeRootVolDelta.C at line 55
    Case is 2D, LES is not strictly applicable

bounding k, min: 0 max: 2e-05 average: 0
LES
{
    LESModel        kEqn;
    turbulence      on;
    printCoeffs     on;
    delta           cubeRootVol;
    cubeRootVolCoeffs
    {
        deltaCoeff      1;
    }
    PrandtlCoeffs
    {
        delta           cubeRootVol;
        cubeRootVolCoeffs
        {
            deltaCoeff      1;
        }
        smoothCoeffs
        {
            delta           cubeRootVol;
            cubeRootVolCoeffs
            {
                deltaCoeff      1;
            }
            maxDeltaRatio   1.1;
        }
        Cdelta          0.158;
    }
    vanDriestCoeffs
    {
        delta           cubeRootVol;
        cubeRootVolCoeffs
        {
            deltaCoeff      1;
        }
        smoothCoeffs
        {
            delta           cubeRootVol;
            cubeRootVolCoeffs
            {
                deltaCoeff      1;
            }
            maxDeltaRatio   1.1;
        }
        Aplus           26;
        Cdelta          0.158;
    }
    smoothCoeffs
    {
        delta           cubeRootVol;
        cubeRootVolCoeffs
        {
            deltaCoeff      1;
        }
        maxDeltaRatio   1.1;
    }
    Ce              1.048;
    Ck              0.094;
}

Creating field dpdt

Creating field kinetic energy K

No MRF models present

No finite volume options present
Courant Number mean: 0.000625 max: 0.075

Starting time loop

Courant Number mean: 0.000625 max: 0.075
Time = 0.005

PIMPLE: Iteration 1
diagonal:  Solving for rho, Initial residual = 0, Final residual = 0, No Iterations 0
smoothSolver:  Solving for Ux, Initial residual = 1, Final residual = 9.46013e-08, No Iterations 1
smoothSolver:  Solving for Uy, Initial residual = 1, Final residual = 5.15887e-08, No Iterations 1
smoothSolver:  Solving for e, Initial residual = 1, Final residual = 2.83494e-07, No Iterations 1
DICPCG:  Solving for p, Initial residual = 1, Final residual = 9.00586e-07, No Iterations 104
diagonal:  Solving for rho, Initial residual = 0, Final residual = 0, No Iterations 0
time step continuity errors : sum local = 1.16159e-09, global = 2.08286e-11, cumulative = 2.08286e-11
PIMPLE: Iteration 2
smoothSolver:  Solving for Ux, Initial residual = 0.121531, Final residual = 0.000172711, No Iterations 1
smoothSolver:  Solving for Uy, Initial residual = 0.384885, Final residual = 5.71635e-05, No Iterations 1
smoothSolver:  Solving for e, Initial residual = 0.633822, Final residual = 0.000397282, No Iterations 1
DICPCG:  Solving for p, Initial residual = 0.0798147, Final residual = 8.14178e-07, No Iterations 73
diagonal:  Solving for rho, Initial residual = 0, Final residual = 0, No Iterations 0
time step continuity errors : sum local = 3.64586e-09, global = -3.02326e-10, cumulative = -2.81497e-10
PIMPLE: Iteration 3
smoothSolver:  Solving for Ux, Initial residual = 0.00359966, Final residual = 1.35554e-09, No Iterations 2
smoothSolver:  Solving for Uy, Initial residual = 0.00690933, Final residual = 2.45019e-09, No Iterations 2
smoothSolver:  Solving for e, Initial residual = 0.374302, Final residual = 7.06781e-08, No Iterations 2
DICPCG:  Solving for p, Initial residual = 0.104612, Final residual = 8.75962e-07, No Iterations 70
diagonal:  Solving for rho, Initial residual = 0, Final residual = 0, No Iterations 0
time step continuity errors : sum local = 3.74725e-09, global = -4.57711e-10, cumulative = -7.39208e-10
smoothSolver:  Solving for k, Initial residual = 0.953715, Final residual = 5.80435e-09, No Iterations 3
bounding k, min: 0 max: 0.000442366 average: 7.07101e-07
ExecutionTime = 0.34 s  ClockTime = 1 s

Courant Number mean: 0.0100452 max: 0.147172
Time = 0.01

PIMPLE: Iteration 1
diagonal:  Solving for rho, Initial residual = 0, Final residual = 0, No Iterations 0
smoothSolver:  Solving for Ux, Initial residual = 0.311572, Final residual = 0.000216032, No Iterations 1
smoothSolver:  Solving for Uy, Initial residual = 0.673335, Final residual = 4.7039e-05, No Iterations 1
smoothSolver:  Solving for e, Initial residual = 0.33095, Final residual = 0.000209791, No Iterations 1
DICPCG:  Solving for p, Initial residual = 0.575718, Final residual = 9.00691e-07, No Iterations 81
diagonal:  Solving for rho, Initial residual = 0, Final residual = 0, No Iterations 0
time step continuity errors : sum local = 5.03501e-09, global = 3.70063e-10, cumulative = -3.69145e-10
PIMPLE: Iteration 2
smoothSolver:  Solving for Ux, Initial residual = 0.00313283, Final residual = 5.49507e-06, No Iterations 1
smoothSolver:  Solving for Uy, Initial residual = 0.00507064, Final residual = 7.30338e-06, No Iterations 1
smoothSolver:  Solving for e, Initial residual = 0.172855, Final residual = 0.000229469, No Iterations 1
DICPCG:  Solving for p, Initial residual = 0.0444438, Final residual = 8.49346e-07, No Iterations 68
diagonal:  Solving for rho, Initial residual = 0, Final residual = 0, No Iterations 0
time step continuity errors : sum local = 7.74882e-09, global = 6.30507e-10, cumulative = 2.61362e-10
PIMPLE: Iteration 3
smoothSolver:  Solving for Ux, Initial residual = 0.000848973, Final residual = 2.12705e-09, No Iterations 2
smoothSolver:  Solving for Uy, Initial residual = 0.000605484, Final residual = 7.93178e-07, No Iterations 1
smoothSolver:  Solving for e, Initial residual = 0.0399909, Final residual = 1.07869e-07, No Iterations 2
DICPCG:  Solving for p, Initial residual = 0.010158, Final residual = 7.82277e-07, No Iterations 57
diagonal:  Solving for rho, Initial residual = 0, Final residual = 0, No Iterations 0
time step continuity errors : sum local = 7.04235e-09, global = -6.21811e-10, cumulative = -3.60449e-10
smoothSolver:  Solving for k, Initial residual = 0.913368, Final residual = 3.50617e-09, No Iterations 3
bounding k, min: 0 max: 0.00987196 average: 2.97971e-05
ExecutionTime = 0.41 s  ClockTime = 1 s

Courant Number mean: 0.0227195 max: 0.15756
Time = 0.015

PIMPLE: Iteration 1
diagonal:  Solving for rho, Initial residual = 0, Final residual = 0, No Iterations 0
smoothSolver:  Solving for Ux, Initial residual = 0.195926, Final residual = 0.000180247, No Iterations 1
smoothSolver:  Solving for Uy, Initial residual = 0.553074, Final residual = 0.000138129, No Iterations 1
smoothSolver:  Solving for e, Initial residual = 0.216428, Final residual = 0.000185438, No Iterations 1
DICPCG:  Solving for p, Initial residual = 0.237595, Final residual = 9.61682e-07, No Iterations 75
diagonal:  Solving for rho, Initial residual = 0, Final residual = 0, No Iterations 0
time step continuity errors : sum local = 9.69766e-09, global = 5.11982e-10, cumulative = 1.51533e-10
PIMPLE: Iteration 2
smoothSolver:  Solving for Ux, Initial residual = 0.00181634, Final residual = 3.65594e-06, No Iterations 1
smoothSolver:  Solving for Uy, Initial residual = 0.00568333, Final residual = 1.0096e-05, No Iterations 1
smoothSolver:  Solving for e, Initial residual = 0.104149, Final residual = 0.000150786, No Iterations 1
DICPCG:  Solving for p, Initial residual = 0.0256013, Final residual = 8.91289e-07, No Iterations 63
diagonal:  Solving for rho, Initial residual = 0, Final residual = 0, No Iterations 0
time step continuity errors : sum local = 1.17385e-08, global = 1.34233e-09, cumulative = 1.49387e-09
PIMPLE: Iteration 3
smoothSolver:  Solving for Ux, Initial residual = 0.000404496, Final residual = 6.96356e-07, No Iterations 1
smoothSolver:  Solving for Uy, Initial residual = 0.00155664, Final residual = 7.35052e-09, No Iterations 2
smoothSolver:  Solving for e, Initial residual = 0.0200621, Final residual = 7.1331e-08, No Iterations 2
DICPCG:  Solving for p, Initial residual = 0.00501561, Final residual = 9.58358e-07, No Iterations 51
diagonal:  Solving for rho, Initial residual = 0, Final residual = 0, No Iterations 0
time step continuity errors : sum local = 1.24826e-08, global = -1.34585e-09, cumulative = 1.4802e-10
smoothSolver:  Solving for k, Initial residual = 0.813393, Final residual = 8.35739e-09, No Iterations 3
bounding k, min: 0 max: 0.106905 average: 0.00052674
ExecutionTime = 0.48 s  ClockTime = 1 s

Courant Number mean: 0.0365262 max: 0.160176
Time = 0.02

PIMPLE: Iteration 1
diagonal:  Solving for rho, Initial residual = 0, Final residual = 0, No Iterations 0
smoothSolver:  Solving for Ux, Initial residual = 0.15795, Final residual = 0.000158202, No Iterations 1
smoothSolver:  Solving for Uy, Initial residual = 0.146684, Final residual = 0.000133561, No Iterations 1
smoothSolver:  Solving for e, Initial residual = 0.168286, Final residual = 0.000158355, No Iterations 1
DICPCG:  Solving for p, Initial residual = 0.167134, Final residual = 8.03891e-07, No Iterations 72
diagonal:  Solving for rho, Initial residual = 0, Final residual = 0, No Iterations 0
time step continuity errors : sum local = 1.11472e-08, global = 1.94889e-10, cumulative = 3.42909e-10
PIMPLE: Iteration 2
smoothSolver:  Solving for Ux, Initial residual = 0.00144952, Final residual = 2.87418e-06, No Iterations 1
smoothSolver:  Solving for Uy, Initial residual = 0.00936112, Final residual = 1.84331e-05, No Iterations 1
smoothSolver:  Solving for e, Initial residual = 0.07621, Final residual = 0.000119843, No Iterations 1
DICPCG:  Solving for p, Initial residual = 0.0188897, Final residual = 8.88542e-07, No Iterations 58
diagonal:  Solving for rho, Initial residual = 0, Final residual = 0, No Iterations 0
time step continuity errors : sum local = 1.44417e-08, global = 1.51132e-09, cumulative = 1.85423e-09
PIMPLE: Iteration 3
smoothSolver:  Solving for Ux, Initial residual = 0.000286185, Final residual = 5.55806e-07, No Iterations 1
smoothSolver:  Solving for Uy, Initial residual = 0.00200346, Final residual = 9.71076e-09, No Iterations 2
smoothSolver:  Solving for e, Initial residual = 0.0127174, Final residual = 5.76891e-08, No Iterations 2
DICPCG:  Solving for p, Initial residual = 0.00318639, Final residual = 9.32701e-07, No Iterations 47
diagonal:  Solving for rho, Initial residual = 0, Final residual = 0, No Iterations 0
time step continuity errors : sum local = 1.50116e-08, global = -4.93403e-10, cumulative = 1.36083e-09
smoothSolver:  Solving for k, Initial residual = 0.650145, Final residual = 9.02507e-09, No Iterations 3
bounding k, min: 0 max: 0.464049 average: 0.00422779
ExecutionTime = 0.54 s  ClockTime = 1 s

Courant Number mean: 0.0507727 max: 0.162626
Time = 0.025

PIMPLE: Iteration 1
diagonal:  Solving for rho, Initial residual = 0, Final residual = 0, No Iterations 0
smoothSolver:  Solving for Ux, Initial residual = 0.139927, Final residual = 0.000145015, No Iterations 1
smoothSolver:  Solving for Uy, Initial residual = 0.224129, Final residual = 0.000292281, No Iterations 1
smoothSolver:  Solving for e, Initial residual = 0.14894, Final residual = 0.000149823, No Iterations 1
DICPCG:  Solving for p, Initial residual = 0.134879, Final residual = 8.74623e-07, No Iterations 68
diagonal:  Solving for rho, Initial residual = 0, Final residual = 0, No Iterations 0
time step continuity errors : sum local = 1.45704e-08, global = 1.01904e-10, cumulative = 1.46273e-09
PIMPLE: Iteration 2
smoothSolver:  Solving for Ux, Initial residual = 0.00123454, Final residual = 2.50558e-06, No Iterations 1
smoothSolver:  Solving for Uy, Initial residual = 0.0108901, Final residual = 2.07022e-05, No Iterations 1
smoothSolver:  Solving for e, Initial residual = 0.0639889, Final residual = 0.000101703, No Iterations 1
DICPCG:  Solving for p, Initial residual = 0.0156674, Final residual = 8.15885e-07, No Iterations 55
diagonal:  Solving for rho, Initial residual = 0, Final residual = 0, No Iterations 0
time step continuity errors : sum local = 1.49178e-08, global = 1.38701e-09, cumulative = 2.84975e-09
PIMPLE: Iteration 3
smoothSolver:  Solving for Ux, Initial residual = 0.000236582, Final residual = 4.73653e-07, No Iterations 1
smoothSolver:  Solving for Uy, Initial residual = 0.002389, Final residual = 1.21761e-08, No Iterations 2
smoothSolver:  Solving for e, Initial residual = 0.00895411, Final residual = 4.01521e-08, No Iterations 2
DICPCG:  Solving for p, Initial residual = 0.00220674, Final residual = 9.68737e-07, No Iterations 45
diagonal:  Solving for rho, Initial residual = 0, Final residual = 0, No Iterations 0
time step continuity errors : sum local = 1.75482e-08, global = -9.09595e-10, cumulative = 1.94015e-09
smoothSolver:  Solving for k, Initial residual = 0.465125, Final residual = 6.20675e-09, No Iterations 3
bounding k, min: 0 max: 1.11297 average: 0.0178166
ExecutionTime = 0.6 s  ClockTime = 1 s

Courant Number mean: 0.0651413 max: 0.164667
Time = 0.03

PIMPLE: Iteration 1
diagonal:  Solving for rho, Initial residual = 0, Final residual = 0, No Iterations 0
smoothSolver:  Solving for Ux, Initial residual = 0.134972, Final residual = 0.000142995, No Iterations 1
smoothSolver:  Solving for Uy, Initial residual = 0.249858, Final residual = 0.000350286, No Iterations 1
smoothSolver:  Solving for e, Initial residual = 0.141328, Final residual = 0.00014773, No Iterations 1
DICPCG:  Solving for p, Initial residual = 0.120342, Final residual = 8.02217e-07, No Iterations 63
diagonal:  Solving for rho, Initial residual = 0, Final residual = 0, No Iterations 0
time step continuity errors : sum local = 1.47529e-08, global = -4.47715e-11, cumulative = 1.89538e-09
PIMPLE: Iteration 2
smoothSolver:  Solving for Ux, Initial residual = 0.00118895, Final residual = 2.37378e-06, No Iterations 1
smoothSolver:  Solving for Uy, Initial residual = 0.0101885, Final residual = 1.85771e-05, No Iterations 1
smoothSolver:  Solving for e, Initial residual = 0.0587409, Final residual = 9.29859e-05, No Iterations 1
DICPCG:  Solving for p, Initial residual = 0.0140753, Final residual = 9.27998e-07, No Iterations 50
diagonal:  Solving for rho, Initial residual = 0, Final residual = 0, No Iterations 0
time step continuity errors : sum local = 1.78593e-08, global = 3.56151e-10, cumulative = 2.25153e-09
PIMPLE: Iteration 3
smoothSolver:  Solving for Ux, Initial residual = 0.000222174, Final residual = 4.39664e-07, No Iterations 1
smoothSolver:  Solving for Uy, Initial residual = 0.00214728, Final residual = 1.00586e-08, No Iterations 2
smoothSolver:  Solving for e, Initial residual = 0.00718313, Final residual = 3.2092e-08, No Iterations 2
DICPCG:  Solving for p, Initial residual = 0.00173389, Final residual = 9.36446e-07, No Iterations 43
diagonal:  Solving for rho, Initial residual = 0, Final residual = 0, No Iterations 0
time step continuity errors : sum local = 1.78559e-08, global = -1.00506e-09, cumulative = 1.24648e-09
smoothSolver:  Solving for k, Initial residual = 0.319689, Final residual = 3.54325e-09, No Iterations 3
bounding k, min: 0 max: 1.96404 average: 0.0478953
ExecutionTime = 0.67 s  ClockTime = 1 s

Courant Number mean: 0.0794267 max: 0.173826
Time = 0.035

PIMPLE: Iteration 1
diagonal:  Solving for rho, Initial residual = 0, Final residual = 0, No Iterations 0
smoothSolver:  Solving for Ux, Initial residual = 0.140532, Final residual = 0.000153074, No Iterations 1
smoothSolver:  Solving for Uy, Initial residual = 0.211299, Final residual = 0.000320494, No Iterations 1
smoothSolver:  Solving for e, Initial residual = 0.142681, Final residual = 0.000154982, No Iterations 1
DICPCG:  Solving for p, Initial residual = 0.115006, Final residual = 9.37374e-07, No Iterations 64
diagonal:  Solving for rho, Initial residual = 0, Final residual = 0, No Iterations 0
time step continuity errors : sum local = 1.78641e-08, global = -1.19553e-10, cumulative = 1.12692e-09
PIMPLE: Iteration 2
smoothSolver:  Solving for Ux, Initial residual = 0.00127348, Final residual = 2.45693e-06, No Iterations 1
smoothSolver:  Solving for Uy, Initial residual = 0.00931789, Final residual = 1.69474e-05, No Iterations 1
smoothSolver:  Solving for e, Initial residual = 0.0578162, Final residual = 9.17069e-05, No Iterations 1
DICPCG:  Solving for p, Initial residual = 0.0133717, Final residual = 9.53319e-07, No Iterations 52
diagonal:  Solving for rho, Initial residual = 0, Final residual = 0, No Iterations 0
time step continuity errors : sum local = 1.82669e-08, global = -1.65352e-09, cumulative = -5.26595e-10
PIMPLE: Iteration 3
smoothSolver:  Solving for Ux, Initial residual = 0.000229904, Final residual = 4.3803e-07, No Iterations 1
smoothSolver:  Solving for Uy, Initial residual = 0.00180387, Final residual = 8.03472e-09, No Iterations 2
smoothSolver:  Solving for e, Initial residual = 0.00626544, Final residual = 2.85825e-08, No Iterations 2
DICPCG:  Solving for p, Initial residual = 0.00145994, Final residual = 9.56339e-07, No Iterations 42
diagonal:  Solving for rho, Initial residual = 0, Final residual = 0, No Iterations 0
time step continuity errors : sum local = 1.81559e-08, global = -6.21429e-10, cumulative = -1.14802e-09
smoothSolver:  Solving for k, Initial residual = 0.221716, Final residual = 9.65334e-07, No Iterations 2
bounding k, min: 0 max: 2.72845 average: 0.0954901
ExecutionTime = 0.74 s  ClockTime = 2 s

Courant Number mean: 0.0934911 max: 0.185023
Time = 0.04

PIMPLE: Iteration 1
diagonal:  Solving for rho, Initial residual = 0, Final residual = 0, No Iterations 0
smoothSolver:  Solving for Ux, Initial residual = 0.157055, Final residual = 0.000177013, No Iterations 1
smoothSolver:  Solving for Uy, Initial residual = 0.16588, Final residual = 0.000274584, No Iterations 1
smoothSolver:  Solving for e, Initial residual = 0.151794, Final residual = 0.000177557, No Iterations 1
DICPCG:  Solving for p, Initial residual = 0.115129, Final residual = 9.88727e-07, No Iterations 62
diagonal:  Solving for rho, Initial residual = 0, Final residual = 0, No Iterations 0
time step continuity errors : sum local = 1.85e-08, global = -1.64899e-10, cumulative = -1.31292e-09
PIMPLE: Iteration 2
smoothSolver:  Solving for Ux, Initial residual = 0.00148343, Final residual = 2.75071e-06, No Iterations 1
smoothSolver:  Solving for Uy, Initial residual = 0.00850043, Final residual = 1.59228e-05, No Iterations 1
smoothSolver:  Solving for e, Initial residual = 0.0590546, Final residual = 9.67273e-05, No Iterations 1
DICPCG:  Solving for p, Initial residual = 0.0131173, Final residual = 9.39311e-07, No Iterations 50
diagonal:  Solving for rho, Initial residual = 0, Final residual = 0, No Iterations 0
time step continuity errors : sum local = 1.70217e-08, global = -1.86845e-09, cumulative = -3.18137e-09
PIMPLE: Iteration 3
smoothSolver:  Solving for Ux, Initial residual = 0.000258923, Final residual = 4.71346e-07, No Iterations 1
smoothSolver:  Solving for Uy, Initial residual = 0.00151646, Final residual = 6.47498e-09, No Iterations 2
smoothSolver:  Solving for e, Initial residual = 0.00593987, Final residual = 2.78935e-08, No Iterations 2
DICPCG:  Solving for p, Initial residual = 0.00132787, Final residual = 7.70142e-07, No Iterations 40
diagonal:  Solving for rho, Initial residual = 0, Final residual = 0, No Iterations 0
time step continuity errors : sum local = 1.38304e-08, global = -6.01806e-10, cumulative = -3.78318e-09
smoothSolver:  Solving for k, Initial residual = 0.156724, Final residual = 6.43716e-07, No Iterations 2
bounding k, min: 0 max: 3.1942 average: 0.155857
ExecutionTime = 0.8 s  ClockTime = 2 s

Courant Number mean: 0.107252 max: 0.195821
Time = 0.045

PIMPLE: Iteration 1
diagonal:  Solving for rho, Initial residual = 0, Final residual = 0, No Iterations 0
smoothSolver:  Solving for Ux, Initial residual = 0.184565, Final residual = 0.000217427, No Iterations 1
smoothSolver:  Solving for Uy, Initial residual = 0.131151, Final residual = 0.00023573, No Iterations 1
smoothSolver:  Solving for e, Initial residual = 0.165237, Final residual = 0.000218746, No Iterations 1
DICPCG:  Solving for p, Initial residual = 0.117563, Final residual = 9.24223e-07, No Iterations 63
diagonal:  Solving for rho, Initial residual = 0, Final residual = 0, No Iterations 0
time step continuity errors : sum local = 1.6166e-08, global = 9.80058e-10, cumulative = -2.80312e-09
PIMPLE: Iteration 2
smoothSolver:  Solving for Ux, Initial residual = 0.00180341, Final residual = 3.21272e-06, No Iterations 1
smoothSolver:  Solving for Uy, Initial residual = 0.00765442, Final residual = 1.45492e-05, No Iterations 1
smoothSolver:  Solving for e, Initial residual = 0.0603301, Final residual = 0.000109602, No Iterations 1
DICPCG:  Solving for p, Initial residual = 0.012931, Final residual = 9.04898e-07, No Iterations 51
diagonal:  Solving for rho, Initial residual = 0, Final residual = 0, No Iterations 0
time step continuity errors : sum local = 1.47954e-08, global = 3.3935e-11, cumulative = -2.76919e-09
PIMPLE: Iteration 3
smoothSolver:  Solving for Ux, Initial residual = 0.000302956, Final residual = 5.31275e-07, No Iterations 1
smoothSolver:  Solving for Uy, Initial residual = 0.00132871, Final residual = 5.44389e-09, No Iterations 2
smoothSolver:  Solving for e, Initial residual = 0.00620796, Final residual = 3.03962e-08, No Iterations 2
DICPCG:  Solving for p, Initial residual = 0.00133366, Final residual = 8.99063e-07, No Iterations 38
diagonal:  Solving for rho, Initial residual = 0, Final residual = 0, No Iterations 0
time step continuity errors : sum local = 1.45848e-08, global = 5.12302e-10, cumulative = -2.25688e-09
smoothSolver:  Solving for k, Initial residual = 0.113932, Final residual = 4.16584e-07, No Iterations 2
bounding k, min: 0 max: 3.34854 average: 0.222662
ExecutionTime = 0.86 s  ClockTime = 2 s

Courant Number mean: 0.120663 max: 0.205153
Time = 0.05

PIMPLE: Iteration 1
diagonal:  Solving for rho, Initial residual = 0, Final residual = 0, No Iterations 0
smoothSolver:  Solving for Ux, Initial residual = 0.225619, Final residual = 0.000282125, No Iterations 1
smoothSolver:  Solving for Uy, Initial residual = 0.109719, Final residual = 0.000210639, No Iterations 1
smoothSolver:  Solving for e, Initial residual = 0.17712, Final residual = 0.000274702, No Iterations 1
DICPCG:  Solving for p, Initial residual = 0.117327, Final residual = 8.80338e-07, No Iterations 62
diagonal:  Solving for rho, Initial residual = 0, Final residual = 0, No Iterations 0
time step continuity errors : sum local = 1.3799e-08, global = 6.55556e-10, cumulative = -1.60133e-09
PIMPLE: Iteration 2
smoothSolver:  Solving for Ux, Initial residual = 0.00237765, Final residual = 4.18191e-06, No Iterations 1
smoothSolver:  Solving for Uy, Initial residual = 0.00701708, Final residual = 1.3595e-05, No Iterations 1
smoothSolver:  Solving for e, Initial residual = 0.0607887, Final residual = 0.000128147, No Iterations 1
DICPCG:  Solving for p, Initial residual = 0.012737, Final residual = 7.66596e-07, No Iterations 51
diagonal:  Solving for rho, Initial residual = 0, Final residual = 0, No Iterations 0
time step continuity errors : sum local = 1.09249e-08, global = -9.81233e-11, cumulative = -1.69945e-09
PIMPLE: Iteration 3
smoothSolver:  Solving for Ux, Initial residual = 0.000376853, Final residual = 6.62589e-07, No Iterations 1
smoothSolver:  Solving for Uy, Initial residual = 0.0012226, Final residual = 5.16024e-09, No Iterations 2
smoothSolver:  Solving for e, Initial residual = 0.00642088, Final residual = 3.64079e-08, No Iterations 2
DICPCG:  Solving for p, Initial residual = 0.00137084, Final residual = 8.60169e-07, No Iterations 40
diagonal:  Solving for rho, Initial residual = 0, Final residual = 0, No Iterations 0
time step continuity errors : sum local = 1.22013e-08, global = 1.04873e-09, cumulative = -6.50723e-10
smoothSolver:  Solving for k, Initial residual = 0.0872334, Final residual = 3.45462e-07, No Iterations 2
bounding k, min: 0 max: 3.28612 average: 0.291809
ExecutionTime = 0.93 s  ClockTime = 2 s

Courant Number mean: 0.133663 max: 0.212596
Time = 0.055

PIMPLE: Iteration 1
diagonal:  Solving for rho, Initial residual = 0, Final residual = 0, No Iterations 0
smoothSolver:  Solving for Ux, Initial residual = 0.292767, Final residual = 0.000417113, No Iterations 1
smoothSolver:  Solving for Uy, Initial residual = 0.100909, Final residual = 0.000200324, No Iterations 1
smoothSolver:  Solving for e, Initial residual = 0.174785, Final residual = 0.000335135, No Iterations 1
DICPCG:  Solving for p, Initial residual = 0.106839, Final residual = 9.86622e-07, No Iterations 63
diagonal:  Solving for rho, Initial residual = 0, Final residual = 0, No Iterations 0
time step continuity errors : sum local = 1.3465e-08, global = 6.09721e-10, cumulative = -4.10018e-11
PIMPLE: Iteration 2
smoothSolver:  Solving for Ux, Initial residual = 0.00336075, Final residual = 6.32584e-06, No Iterations 1
smoothSolver:  Solving for Uy, Initial residual = 0.00662898, Final residual = 1.32543e-05, No Iterations 1
smoothSolver:  Solving for e, Initial residual = 0.0676432, Final residual = 0.000159642, No Iterations 1
DICPCG:  Solving for p, Initial residual = 0.0141295, Final residual = 8.75186e-07, No Iterations 52
diagonal:  Solving for rho, Initial residual = 0, Final residual = 0, No Iterations 0
time step continuity errors : sum local = 1.07899e-08, global = -9.23601e-10, cumulative = -9.64603e-10
PIMPLE: Iteration 3
smoothSolver:  Solving for Ux, Initial residual = 0.000530215, Final residual = 9.76277e-07, No Iterations 1
smoothSolver:  Solving for Uy, Initial residual = 0.00117033, Final residual = 5.37048e-09, No Iterations 2
smoothSolver:  Solving for e, Initial residual = 0.00604805, Final residual = 4.42866e-08, No Iterations 2
DICPCG:  Solving for p, Initial residual = 0.00133733, Final residual = 9.66446e-07, No Iterations 40
diagonal:  Solving for rho, Initial residual = 0, Final residual = 0, No Iterations 0
time step continuity errors : sum local = 1.19268e-08, global = 4.93815e-10, cumulative = -4.70787e-10
smoothSolver:  Solving for k, Initial residual = 0.0761062, Final residual = 3.75034e-07, No Iterations 2
bounding k, min: 0 max: 3.11606 average: 0.3637
ExecutionTime = 0.99 s  ClockTime = 2 s

Courant Number mean: 0.146178 max: 0.219055
Time = 0.06

PIMPLE: Iteration 1
diagonal:  Solving for rho, Initial residual = 0, Final residual = 0, No Iterations 0
smoothSolver:  Solving for Ux, Initial residual = 0.345801, Final residual = 0.00065168, No Iterations 1
smoothSolver:  Solving for Uy, Initial residual = 0.0951909, Final residual = 0.00019574, No Iterations 1
smoothSolver:  Solving for e, Initial residual = 0.145594, Final residual = 0.000368189, No Iterations 1
DICPCG:  Solving for p, Initial residual = 0.0819212, Final residual = 8.99685e-07, No Iterations 59
diagonal:  Solving for rho, Initial residual = 0, Final residual = 0, No Iterations 0
time step continuity errors : sum local = 1.06159e-08, global = 2.83101e-10, cumulative = -1.87686e-10
PIMPLE: Iteration 2
smoothSolver:  Solving for Ux, Initial residual = 0.00303439, Final residual = 6.65652e-06, No Iterations 1
smoothSolver:  Solving for Uy, Initial residual = 0.00649787, Final residual = 1.37487e-05, No Iterations 1
smoothSolver:  Solving for e, Initial residual = 0.0818623, Final residual = 0.000224396, No Iterations 1
DICPCG:  Solving for p, Initial residual = 0.0179886, Final residual = 8.05856e-07, No Iterations 52
diagonal:  Solving for rho, Initial residual = 0, Final residual = 0, No Iterations 0
time step continuity errors : sum local = 8.8273e-09, global = -9.71583e-10, cumulative = -1.15927e-09
PIMPLE: Iteration 3
smoothSolver:  Solving for Ux, Initial residual = 0.000596593, Final residual = 3.40364e-09, No Iterations 2
smoothSolver:  Solving for Uy, Initial residual = 0.00117007, Final residual = 7.00815e-09, No Iterations 2
smoothSolver:  Solving for e, Initial residual = 0.00571745, Final residual = 5.62616e-08, No Iterations 2
DICPCG:  Solving for p, Initial residual = 0.00133091, Final residual = 7.17244e-07, No Iterations 42
diagonal:  Solving for rho, Initial residual = 0, Final residual = 0, No Iterations 0
time step continuity errors : sum local = 7.9197e-09, global = 2.45994e-10, cumulative = -9.13275e-10
smoothSolver:  Solving for k, Initial residual = 0.0806462, Final residual = 5.37547e-07, No Iterations 2
bounding k, min: 0 max: 2.91618 average: 0.447247
ExecutionTime = 1.06 s  ClockTime = 2 s

Courant Number mean: 0.158122 max: 0.22565
Time = 0.065

PIMPLE: Iteration 1
diagonal:  Solving for rho, Initial residual = 0, Final residual = 0, No Iterations 0
smoothSolver:  Solving for Ux, Initial residual = 0.27372, Final residual = 0.000772349, No Iterations 1
smoothSolver:  Solving for Uy, Initial residual = 0.0878643, Final residual = 0.000199788, No Iterations 1
smoothSolver:  Solving for e, Initial residual = 0.102728, Final residual = 0.000329689, No Iterations 1
DICPCG:  Solving for p, Initial residual = 0.0691556, Final residual = 7.0193e-07, No Iterations 60
diagonal:  Solving for rho, Initial residual = 0, Final residual = 0, No Iterations 0
time step continuity errors : sum local = 7.51511e-09, global = -3.77429e-10, cumulative = -1.2907e-09
PIMPLE: Iteration 2
smoothSolver:  Solving for Ux, Initial residual = 0.00194259, Final residual = 5.02743e-06, No Iterations 1
smoothSolver:  Solving for Uy, Initial residual = 0.00692955, Final residual = 1.68771e-05, No Iterations 1
smoothSolver:  Solving for e, Initial residual = 0.0724597, Final residual = 0.000258529, No Iterations 1
DICPCG:  Solving for p, Initial residual = 0.0175458, Final residual = 6.34137e-07, No Iterations 49
diagonal:  Solving for rho, Initial residual = 0, Final residual = 0, No Iterations 0
time step continuity errors : sum local = 6.64273e-09, global = -8.61857e-10, cumulative = -2.15256e-09
PIMPLE: Iteration 3
smoothSolver:  Solving for Ux, Initial residual = 0.000438241, Final residual = 4.98682e-09, No Iterations 2
smoothSolver:  Solving for Uy, Initial residual = 0.0012343, Final residual = 1.29866e-08, No Iterations 2
smoothSolver:  Solving for e, Initial residual = 0.00561507, Final residual = 8.95803e-08, No Iterations 2
DICPCG:  Solving for p, Initial residual = 0.00148372, Final residual = 9.90754e-07, No Iterations 42
diagonal:  Solving for rho, Initial residual = 0, Final residual = 0, No Iterations 0
time step continuity errors : sum local = 1.05096e-08, global = 7.72457e-10, cumulative = -1.3801e-09
smoothSolver:  Solving for k, Initial residual = 0.0973543, Final residual = 3.87735e-09, No Iterations 3
bounding k, min: 0 max: 3.14169 average: 0.564701
ExecutionTime = 1.12 s  ClockTime = 2 s

Courant Number mean: 0.169369 max: 0.233489
Time = 0.07

PIMPLE: Iteration 1
diagonal:  Solving for rho, Initial residual = 0, Final residual = 0, No Iterations 0
smoothSolver:  Solving for Ux, Initial residual = 0.176328, Final residual = 0.000767125, No Iterations 1
smoothSolver:  Solving for Uy, Initial residual = 0.0803141, Final residual = 0.000203197, No Iterations 1
smoothSolver:  Solving for e, Initial residual = 0.113561, Final residual = 0.000389801, No Iterations 1
DICPCG:  Solving for p, Initial residual = 0.106038, Final residual = 7.2496e-07, No Iterations 58
diagonal:  Solving for rho, Initial residual = 0, Final residual = 0, No Iterations 0
time step continuity errors : sum local = 8.443e-09, global = 1.16304e-10, cumulative = -1.2638e-09
PIMPLE: Iteration 2
smoothSolver:  Solving for Ux, Initial residual = 0.00224685, Final residual = 8.31035e-06, No Iterations 1
smoothSolver:  Solving for Uy, Initial residual = 0.00753323, Final residual = 2.27602e-05, No Iterations 1
smoothSolver:  Solving for e, Initial residual = 0.0402689, Final residual = 0.000182215, No Iterations 1
DICPCG:  Solving for p, Initial residual = 0.00994723, Final residual = 6.36779e-07, No Iterations 52
diagonal:  Solving for rho, Initial residual = 0, Final residual = 0, No Iterations 0
time step continuity errors : sum local = 8.03097e-09, global = -2.06213e-10, cumulative = -1.47001e-09
PIMPLE: Iteration 3
smoothSolver:  Solving for Ux, Initial residual = 0.00029986, Final residual = 6.04982e-09, No Iterations 2
smoothSolver:  Solving for Uy, Initial residual = 0.00137319, Final residual = 2.31771e-08, No Iterations 2
smoothSolver:  Solving for e, Initial residual = 0.00391365, Final residual = 1.06136e-07, No Iterations 2
DICPCG:  Solving for p, Initial residual = 0.00112446, Final residual = 9.59442e-07, No Iterations 41
diagonal:  Solving for rho, Initial residual = 0, Final residual = 0, No Iterations 0
time step continuity errors : sum local = 1.21626e-08, global = 1.21652e-09, cumulative = -2.53497e-10
smoothSolver:  Solving for k, Initial residual = 0.113723, Final residual = 1.19244e-08, No Iterations 3
bounding k, min: 0 max: 4.9746 average: 0.735068
ExecutionTime = 1.18 s  ClockTime = 2 s

Courant Number mean: 0.179815 max: 0.285954
Time = 0.075

PIMPLE: Iteration 1
diagonal:  Solving for rho, Initial residual = 0, Final residual = 0, No Iterations 0
smoothSolver:  Solving for Ux, Initial residual = 0.140104, Final residual = 0.000761665, No Iterations 1
smoothSolver:  Solving for Uy, Initial residual = 0.109643, Final residual = 0.000250964, No Iterations 1
smoothSolver:  Solving for e, Initial residual = 0.122, Final residual = 0.000508984, No Iterations 1
DICPCG:  Solving for p, Initial residual = 0.112511, Final residual = 6.97154e-07, No Iterations 62
diagonal:  Solving for rho, Initial residual = 0, Final residual = 0, No Iterations 0
time step continuity errors : sum local = 9.74169e-09, global = -4.62718e-10, cumulative = -7.16215e-10
PIMPLE: Iteration 2
smoothSolver:  Solving for Ux, Initial residual = 0.0026032, Final residual = 1.12678e-05, No Iterations 1
smoothSolver:  Solving for Uy, Initial residual = 0.00672783, Final residual = 2.64196e-05, No Iterations 1
smoothSolver:  Solving for e, Initial residual = 0.0170235, Final residual = 8.30884e-05, No Iterations 1
DICPCG:  Solving for p, Initial residual = 0.00457372, Final residual = 8.29594e-07, No Iterations 48
diagonal:  Solving for rho, Initial residual = 0, Final residual = 0, No Iterations 0
time step continuity errors : sum local = 1.26207e-08, global = -6.6475e-10, cumulative = -1.38097e-09
PIMPLE: Iteration 3
smoothSolver:  Solving for Ux, Initial residual = 0.000166165, Final residual = 5.99566e-07, No Iterations 1
smoothSolver:  Solving for Uy, Initial residual = 0.00160185, Final residual = 3.04611e-08, No Iterations 2
smoothSolver:  Solving for e, Initial residual = 0.00216819, Final residual = 7.34857e-08, No Iterations 2
DICPCG:  Solving for p, Initial residual = 0.000606853, Final residual = 7.85204e-07, No Iterations 39
diagonal:  Solving for rho, Initial residual = 0, Final residual = 0, No Iterations 0
time step continuity errors : sum local = 1.19186e-08, global = 1.13923e-09, cumulative = -2.41731e-10
smoothSolver:  Solving for k, Initial residual = 0.105843, Final residual = 1.05084e-08, No Iterations 3
bounding k, min: 0 max: 9.206 average: 0.93429
ExecutionTime = 1.26 s  ClockTime = 2 s

Courant Number mean: 0.189661 max: 0.317971
Time = 0.08

PIMPLE: Iteration 1
diagonal:  Solving for rho, Initial residual = 0, Final residual = 0, No Iterations 0
smoothSolver:  Solving for Ux, Initial residual = 0.120644, Final residual = 0.000689815, No Iterations 1
smoothSolver:  Solving for Uy, Initial residual = 0.161822, Final residual = 0.000475586, No Iterations 1
smoothSolver:  Solving for e, Initial residual = 0.11397, Final residual = 0.000556032, No Iterations 1
DICPCG:  Solving for p, Initial residual = 0.104767, Final residual = 9.59293e-07, No Iterations 60
diagonal:  Solving for rho, Initial residual = 0, Final residual = 0, No Iterations 0
time step continuity errors : sum local = 1.55391e-08, global = -8.78542e-10, cumulative = -1.12027e-09
PIMPLE: Iteration 2
smoothSolver:  Solving for Ux, Initial residual = 0.00224283, Final residual = 9.38923e-06, No Iterations 1
smoothSolver:  Solving for Uy, Initial residual = 0.0122339, Final residual = 5.43233e-05, No Iterations 1
smoothSolver:  Solving for e, Initial residual = 0.0260258, Final residual = 0.000147322, No Iterations 1
DICPCG:  Solving for p, Initial residual = 0.00740156, Final residual = 8.73713e-07, No Iterations 49
diagonal:  Solving for rho, Initial residual = 0, Final residual = 0, No Iterations 0
time step continuity errors : sum local = 1.49349e-08, global = -1.24964e-09, cumulative = -2.36991e-09
PIMPLE: Iteration 3
smoothSolver:  Solving for Ux, Initial residual = 0.000228001, Final residual = 8.70113e-07, No Iterations 1
smoothSolver:  Solving for Uy, Initial residual = 0.00208231, Final residual = 6.63e-08, No Iterations 2
smoothSolver:  Solving for e, Initial residual = 0.001879, Final residual = 8.96806e-08, No Iterations 2
DICPCG:  Solving for p, Initial residual = 0.000513115, Final residual = 9.42243e-07, No Iterations 36
diagonal:  Solving for rho, Initial residual = 0, Final residual = 0, No Iterations 0
time step continuity errors : sum local = 1.59981e-08, global = 2.02441e-09, cumulative = -3.45503e-10
smoothSolver:  Solving for k, Initial residual = 0.0756674, Final residual = 4.3161e-09, No Iterations 3
bounding k, min: 0 max: 11.3964 average: 1.11434
ExecutionTime = 1.32 s  ClockTime = 2 s

Courant Number mean: 0.199526 max: 0.327981
Time = 0.085

PIMPLE: Iteration 1
diagonal:  Solving for rho, Initial residual = 0, Final residual = 0, No Iterations 0
smoothSolver:  Solving for Ux, Initial residual = 0.10681, Final residual = 0.000572873, No Iterations 1
smoothSolver:  Solving for Uy, Initial residual = 0.137697, Final residual = 0.000483587, No Iterations 1
smoothSolver:  Solving for e, Initial residual = 0.0997321, Final residual = 0.000504166, No Iterations 1
DICPCG:  Solving for p, Initial residual = 0.0901509, Final residual = 6.23686e-07, No Iterations 60
diagonal:  Solving for rho, Initial residual = 0, Final residual = 0, No Iterations 0
time step continuity errors : sum local = 1.08868e-08, global = -1.94104e-10, cumulative = -5.39607e-10
PIMPLE: Iteration 2
smoothSolver:  Solving for Ux, Initial residual = 0.0013313, Final residual = 5.94724e-06, No Iterations 1
smoothSolver:  Solving for Uy, Initial residual = 0.0152009, Final residual = 7.54991e-05, No Iterations 1
smoothSolver:  Solving for e, Initial residual = 0.0340637, Final residual = 0.000239817, No Iterations 1
DICPCG:  Solving for p, Initial residual = 0.00906874, Final residual = 8.45337e-07, No Iterations 48
diagonal:  Solving for rho, Initial residual = 0, Final residual = 0, No Iterations 0
time step continuity errors : sum local = 1.4908e-08, global = -2.19498e-09, cumulative = -2.73459e-09
PIMPLE: Iteration 3
smoothSolver:  Solving for Ux, Initial residual = 0.000277459, Final residual = 8.24172e-09, No Iterations 2
smoothSolver:  Solving for Uy, Initial residual = 0.00250779, Final residual = 7.82577e-08, No Iterations 2
smoothSolver:  Solving for e, Initial residual = 0.00251575, Final residual = 2.00262e-07, No Iterations 2
DICPCG:  Solving for p, Initial residual = 0.000692528, Final residual = 8.96951e-07, No Iterations 36
diagonal:  Solving for rho, Initial residual = 0, Final residual = 0, No Iterations 0
time step continuity errors : sum local = 1.56936e-08, global = 1.99663e-09, cumulative = -7.37959e-10
smoothSolver:  Solving for k, Initial residual = 0.0579448, Final residual = 6.79456e-09, No Iterations 3
bounding k, min: 0 max: 10.8065 average: 1.26209
ExecutionTime = 1.39 s  ClockTime = 2 s

Courant Number mean: 0.209408 max: 0.322894
Time = 0.09

PIMPLE: Iteration 1
diagonal:  Solving for rho, Initial residual = 0, Final residual = 0, No Iterations 0
smoothSolver:  Solving for Ux, Initial residual = 0.10245, Final residual = 0.000594557, No Iterations 1
smoothSolver:  Solving for Uy, Initial residual = 0.0912942, Final residual = 0.000394492, No Iterations 1
smoothSolver:  Solving for e, Initial residual = 0.0860599, Final residual = 0.000421489, No Iterations 1
DICPCG:  Solving for p, Initial residual = 0.0770169, Final residual = 9.37676e-07, No Iterations 57
diagonal:  Solving for rho, Initial residual = 0, Final residual = 0, No Iterations 0
time step continuity errors : sum local = 1.63296e-08, global = 2.73836e-10, cumulative = -4.64123e-10
PIMPLE: Iteration 2
smoothSolver:  Solving for Ux, Initial residual = 0.00137822, Final residual = 6.57595e-06, No Iterations 1
smoothSolver:  Solving for Uy, Initial residual = 0.0116057, Final residual = 6.41028e-05, No Iterations 1
smoothSolver:  Solving for e, Initial residual = 0.0326001, Final residual = 0.000259245, No Iterations 1
DICPCG:  Solving for p, Initial residual = 0.0082063, Final residual = 9.8824e-07, No Iterations 43
diagonal:  Solving for rho, Initial residual = 0, Final residual = 0, No Iterations 0
time step continuity errors : sum local = 1.66467e-08, global = -2.96866e-09, cumulative = -3.43278e-09
PIMPLE: Iteration 3
smoothSolver:  Solving for Ux, Initial residual = 0.000231224, Final residual = 8.14483e-09, No Iterations 2
smoothSolver:  Solving for Uy, Initial residual = 0.00209974, Final residual = 8.81426e-08, No Iterations 2
smoothSolver:  Solving for e, Initial residual = 0.00250538, Final residual = 2.65768e-07, No Iterations 2
DICPCG:  Solving for p, Initial residual = 0.000715807, Final residual = 7.43489e-07, No Iterations 37
diagonal:  Solving for rho, Initial residual = 0, Final residual = 0, No Iterations 0
time step continuity errors : sum local = 1.24332e-08, global = 1.36828e-09, cumulative = -2.0645e-09
smoothSolver:  Solving for k, Initial residual = 0.0717043, Final residual = 7.8734e-09, No Iterations 3
bounding k, min: 0 max: 8.90858 average: 1.39509
ExecutionTime = 1.45 s  ClockTime = 2 s

Courant Number mean: 0.219013 max: 0.317591
Time = 0.095

PIMPLE: Iteration 1
diagonal:  Solving for rho, Initial residual = 0, Final residual = 0, No Iterations 0
smoothSolver:  Solving for Ux, Initial residual = 0.0915709, Final residual = 0.000571305, No Iterations 1
smoothSolver:  Solving for Uy, Initial residual = 0.0869859, Final residual = 0.000390981, No Iterations 1
smoothSolver:  Solving for e, Initial residual = 0.0903377, Final residual = 0.000527477, No Iterations 1
DICPCG:  Solving for p, Initial residual = 0.0983136, Final residual = 5.14853e-07, No Iterations 56
diagonal:  Solving for rho, Initial residual = 0, Final residual = 0, No Iterations 0
time step continuity errors : sum local = 8.33031e-09, global = 9.5235e-10, cumulative = -1.11215e-09
PIMPLE: Iteration 2
smoothSolver:  Solving for Ux, Initial residual = 0.00189323, Final residual = 1.06703e-05, No Iterations 1
smoothSolver:  Solving for Uy, Initial residual = 0.00715381, Final residual = 3.51337e-05, No Iterations 1
smoothSolver:  Solving for e, Initial residual = 0.0295973, Final residual = 0.000238186, No Iterations 1
DICPCG:  Solving for p, Initial residual = 0.00743015, Final residual = 8.67917e-07, No Iterations 46
diagonal:  Solving for rho, Initial residual = 0, Final residual = 0, No Iterations 0
time step continuity errors : sum local = 1.30252e-08, global = -9.883e-10, cumulative = -2.10045e-09
PIMPLE: Iteration 3
smoothSolver:  Solving for Ux, Initial residual = 0.000130676, Final residual = 6.93938e-07, No Iterations 1
smoothSolver:  Solving for Uy, Initial residual = 0.00150327, Final residual = 6.48784e-08, No Iterations 2
smoothSolver:  Solving for e, Initial residual = 0.00225261, Final residual = 2.77124e-07, No Iterations 2
DICPCG:  Solving for p, Initial residual = 0.000629604, Final residual = 8.7519e-07, No Iterations 36
diagonal:  Solving for rho, Initial residual = 0, Final residual = 0, No Iterations 0
time step continuity errors : sum local = 1.30514e-08, global = 6.55905e-10, cumulative = -1.44454e-09
smoothSolver:  Solving for k, Initial residual = 0.0702901, Final residual = 1.01195e-08, No Iterations 3
bounding k, min: 0 max: 7.8232 average: 1.52741
ExecutionTime = 1.51 s  ClockTime = 2 s

Courant Number mean: 0.227857 max: 0.328124
Time = 0.1

PIMPLE: Iteration 1
diagonal:  Solving for rho, Initial residual = 0, Final residual = 0, No Iterations 0
smoothSolver:  Solving for Ux, Initial residual = 0.0758572, Final residual = 0.000487698, No Iterations 1
smoothSolver:  Solving for Uy, Initial residual = 0.0918551, Final residual = 0.00044096, No Iterations 1
smoothSolver:  Solving for e, Initial residual = 0.11801, Final residual = 0.000775025, No Iterations 1
DICPCG:  Solving for p, Initial residual = 0.124996, Final residual = 4.9117e-07, No Iterations 56
diagonal:  Solving for rho, Initial residual = 0, Final residual = 0, No Iterations 0
time step continuity errors : sum local = 6.90255e-09, global = -7.12452e-10, cumulative = -2.15699e-09
PIMPLE: Iteration 2
smoothSolver:  Solving for Ux, Initial residual = 0.00200933, Final residual = 1.23448e-05, No Iterations 1
smoothSolver:  Solving for Uy, Initial residual = 0.00752034, Final residual = 4.1998e-05, No Iterations 1
smoothSolver:  Solving for e, Initial residual = 0.0275904, Final residual = 0.000208866, No Iterations 1
DICPCG:  Solving for p, Initial residual = 0.00813375, Final residual = 6.84406e-07, No Iterations 48
diagonal:  Solving for rho, Initial residual = 0, Final residual = 0, No Iterations 0
time step continuity errors : sum local = 8.50881e-09, global = -7.16267e-10, cumulative = -2.87326e-09
PIMPLE: Iteration 3
smoothSolver:  Solving for Ux, Initial residual = 0.00018151, Final residual = 7.74398e-09, No Iterations 2
smoothSolver:  Solving for Uy, Initial residual = 0.00149576, Final residual = 6.61406e-08, No Iterations 2
smoothSolver:  Solving for e, Initial residual = 0.00216863, Final residual = 3.07552e-07, No Iterations 2
DICPCG:  Solving for p, Initial residual = 0.000614184, Final residual = 8.01624e-07, No Iterations 36
diagonal:  Solving for rho, Initial residual = 0, Final residual = 0, No Iterations 0
time step continuity errors : sum local = 9.91053e-09, global = 8.64577e-10, cumulative = -2.00868e-09
smoothSolver:  Solving for k, Initial residual = 0.0628363, Final residual = 9.13623e-09, No Iterations 3
bounding k, min: 0 max: 7.54972 average: 1.65963
ExecutionTime = 1.71 s  ClockTime = 3 s

Courant Number mean: 0.235409 max: 0.33434
Time = 0.105

PIMPLE: Iteration 1
diagonal:  Solving for rho, Initial residual = 0, Final residual = 0, No Iterations 0
smoothSolver:  Solving for Ux, Initial residual = 0.0639283, Final residual = 0.000428124, No Iterations 1
smoothSolver:  Solving for Uy, Initial residual = 0.0845584, Final residual = 0.000418824, No Iterations 1
smoothSolver:  Solving for e, Initial residual = 0.13722, Final residual = 0.000940913, No Iterations 1
DICPCG:  Solving for p, Initial residual = 0.150629, Final residual = 8.63367e-07, No Iterations 56
diagonal:  Solving for rho, Initial residual = 0, Final residual = 0, No Iterations 0
time step continuity errors : sum local = 9.80491e-09, global = -7.04436e-10, cumulative = -2.71312e-09
PIMPLE: Iteration 2
smoothSolver:  Solving for Ux, Initial residual = 0.00169879, Final residual = 1.07141e-05, No Iterations 1
smoothSolver:  Solving for Uy, Initial residual = 0.00863895, Final residual = 5.01709e-05, No Iterations 1
smoothSolver:  Solving for e, Initial residual = 0.0371828, Final residual = 0.000315936, No Iterations 1
DICPCG:  Solving for p, Initial residual = 0.0123733, Final residual = 7.75216e-07, No Iterations 48
diagonal:  Solving for rho, Initial residual = 0, Final residual = 0, No Iterations 0
time step continuity errors : sum local = 7.29486e-09, global = -9.10636e-10, cumulative = -3.62376e-09
PIMPLE: Iteration 3
smoothSolver:  Solving for Ux, Initial residual = 0.000238113, Final residual = 1.22067e-08, No Iterations 2
smoothSolver:  Solving for Uy, Initial residual = 0.00172136, Final residual = 9.64823e-08, No Iterations 2
smoothSolver:  Solving for e, Initial residual = 0.00300366, Final residual = 3.69405e-07, No Iterations 2
DICPCG:  Solving for p, Initial residual = 0.00110137, Final residual = 7.99111e-07, No Iterations 37
diagonal:  Solving for rho, Initial residual = 0, Final residual = 0, No Iterations 0
time step continuity errors : sum local = 7.47972e-09, global = -3.0723e-10, cumulative = -3.93099e-09
smoothSolver:  Solving for k, Initial residual = 0.0560765, Final residual = 8.38182e-09, No Iterations 3
bounding k, min: 0 max: 7.19592 average: 1.7854
ExecutionTime = 1.77 s  ClockTime = 3 s

Courant Number mean: 0.24113 max: 0.336794
Time = 0.11

PIMPLE: Iteration 1
diagonal:  Solving for rho, Initial residual = 0, Final residual = 0, No Iterations 0
smoothSolver:  Solving for Ux, Initial residual = 0.053163, Final residual = 0.000378009, No Iterations 1
smoothSolver:  Solving for Uy, Initial residual = 0.0728491, Final residual = 0.000359916, No Iterations 1
smoothSolver:  Solving for e, Initial residual = 0.150175, Final residual = 0.00103069, No Iterations 1
DICPCG:  Solving for p, Initial residual = 0.189437, Final residual = 9.85718e-07, No Iterations 60
diagonal:  Solving for rho, Initial residual = 0, Final residual = 0, No Iterations 0
time step continuity errors : sum local = 8.23633e-09, global = 1.02463e-10, cumulative = -3.82852e-09
PIMPLE: Iteration 2
smoothSolver:  Solving for Ux, Initial residual = 0.00162356, Final residual = 9.89325e-06, No Iterations 1
smoothSolver:  Solving for Uy, Initial residual = 0.00743253, Final residual = 4.36714e-05, No Iterations 1
smoothSolver:  Solving for e, Initial residual = 0.0401552, Final residual = 0.000368094, No Iterations 1
DICPCG:  Solving for p, Initial residual = 0.0162622, Final residual = 9.12322e-07, No Iterations 46
diagonal:  Solving for rho, Initial residual = 0, Final residual = 0, No Iterations 0
time step continuity errors : sum local = 5.61403e-09, global = -4.11375e-10, cumulative = -4.2399e-09
PIMPLE: Iteration 3
smoothSolver:  Solving for Ux, Initial residual = 0.00021158, Final residual = 1.15472e-08, No Iterations 2
smoothSolver:  Solving for Uy, Initial residual = 0.00146775, Final residual = 8.62275e-08, No Iterations 2
smoothSolver:  Solving for e, Initial residual = 0.00383906, Final residual = 4.76349e-07, No Iterations 2
DICPCG:  Solving for p, Initial residual = 0.00185607, Final residual = 7.71543e-07, No Iterations 41
diagonal:  Solving for rho, Initial residual = 0, Final residual = 0, No Iterations 0
time step continuity errors : sum local = 4.72263e-09, global = -5.26131e-10, cumulative = -4.76603e-09
smoothSolver:  Solving for k, Initial residual = 0.0504141, Final residual = 9.15491e-09, No Iterations 3
bounding k, min: 0 max: 6.8163 average: 1.89693
ExecutionTime = 1.84 s  ClockTime = 3 s

Courant Number mean: 0.244511 max: 0.338339
Time = 0.115

PIMPLE: Iteration 1
diagonal:  Solving for rho, Initial residual = 0, Final residual = 0, No Iterations 0
smoothSolver:  Solving for Ux, Initial residual = 0.0404035, Final residual = 0.000305793, No Iterations 1
smoothSolver:  Solving for Uy, Initial residual = 0.0656746, Final residual = 0.000328108, No Iterations 1
smoothSolver:  Solving for e, Initial residual = 0.157054, Final residual = 0.00107192, No Iterations 1
DICPCG:  Solving for p, Initial residual = 0.290925, Final residual = 7.66631e-07, No Iterations 64
diagonal:  Solving for rho, Initial residual = 0, Final residual = 0, No Iterations 0
time step continuity errors : sum local = 4.08267e-09, global = -2.13049e-10, cumulative = -4.97908e-09
PIMPLE: Iteration 2
smoothSolver:  Solving for Ux, Initial residual = 0.0019168, Final residual = 1.13409e-05, No Iterations 1
smoothSolver:  Solving for Uy, Initial residual = 0.0056482, Final residual = 3.4341e-05, No Iterations 1
smoothSolver:  Solving for e, Initial residual = 0.0334216, Final residual = 0.000322181, No Iterations 1
DICPCG:  Solving for p, Initial residual = 0.0240987, Final residual = 8.41718e-07, No Iterations 49
diagonal:  Solving for rho, Initial residual = 0, Final residual = 0, No Iterations 0
time step continuity errors : sum local = 2.48003e-09, global = 2.5434e-10, cumulative = -4.72474e-09
PIMPLE: Iteration 3
smoothSolver:  Solving for Ux, Initial residual = 0.00015312, Final residual = 9.3719e-07, No Iterations 1
smoothSolver:  Solving for Uy, Initial residual = 0.00122631, Final residual = 6.93481e-08, No Iterations 2
smoothSolver:  Solving for e, Initial residual = 0.00408597, Final residual = 5.26308e-07, No Iterations 2
DICPCG:  Solving for p, Initial residual = 0.0035314, Final residual = 9.22337e-07, No Iterations 43
diagonal:  Solving for rho, Initial residual = 0, Final residual = 0, No Iterations 0
time step continuity errors : sum local = 2.68825e-09, global = -2.02543e-10, cumulative = -4.92728e-09
smoothSolver:  Solving for k, Initial residual = 0.0445364, Final residual = 9.10439e-09, No Iterations 3
bounding k, min: 0 max: 6.40419 average: 1.98666
ExecutionTime = 1.9 s  ClockTime = 3 s

Courant Number mean: 0.245177 max: 0.349729
Time = 0.12

PIMPLE: Iteration 1
diagonal:  Solving for rho, Initial residual = 0, Final residual = 0, No Iterations 0
smoothSolver:  Solving for Ux, Initial residual = 0.0291377, Final residual = 0.000231869, No Iterations 1
smoothSolver:  Solving for Uy, Initial residual = 0.0589117, Final residual = 0.000300744, No Iterations 1
smoothSolver:  Solving for e, Initial residual = 0.156268, Final residual = 0.00105172, No Iterations 1
DICPCG:  Solving for p, Initial residual = 0.448452, Final residual = 8.05235e-07, No Iterations 67
diagonal:  Solving for rho, Initial residual = 0, Final residual = 0, No Iterations 0
time step continuity errors : sum local = 2.64461e-09, global = -5.1335e-11, cumulative = -4.97862e-09
PIMPLE: Iteration 2
smoothSolver:  Solving for Ux, Initial residual = 0.00195831, Final residual = 1.12686e-05, No Iterations 1
smoothSolver:  Solving for Uy, Initial residual = 0.00515623, Final residual = 3.21172e-05, No Iterations 1
smoothSolver:  Solving for e, Initial residual = 0.023219, Final residual = 3.59184e-06, No Iterations 2
DICPCG:  Solving for p, Initial residual = 0.0249623, Final residual = 8.11964e-07, No Iterations 54
diagonal:  Solving for rho, Initial residual = 0, Final residual = 0, No Iterations 0
time step continuity errors : sum local = 1.80603e-09, global = 2.70429e-10, cumulative = -4.70819e-09
PIMPLE: Iteration 3
smoothSolver:  Solving for Ux, Initial residual = 0.000125847, Final residual = 8.34613e-07, No Iterations 1
smoothSolver:  Solving for Uy, Initial residual = 0.00118491, Final residual = 7.01938e-08, No Iterations 2
smoothSolver:  Solving for e, Initial residual = 0.00349608, Final residual = 4.75614e-07, No Iterations 2
DICPCG:  Solving for p, Initial residual = 0.00411449, Final residual = 9.25014e-07, No Iterations 46
diagonal:  Solving for rho, Initial residual = 0, Final residual = 0, No Iterations 0
time step continuity errors : sum local = 2.00858e-09, global = -1.93072e-10, cumulative = -4.90126e-09
smoothSolver:  Solving for k, Initial residual = 0.040012, Final residual = 9.42984e-09, No Iterations 3
bounding k, min: 0 max: 5.94711 average: 2.0486
ExecutionTime = 1.96 s  ClockTime = 3 s

Courant Number mean: 0.242964 max: 0.357856
Time = 0.125

PIMPLE: Iteration 1
diagonal:  Solving for rho, Initial residual = 0, Final residual = 0, No Iterations 0
smoothSolver:  Solving for Ux, Initial residual = 0.0288817, Final residual = 0.000215965, No Iterations 1
smoothSolver:  Solving for Uy, Initial residual = 0.0474581, Final residual = 0.00025231, No Iterations 1
smoothSolver:  Solving for e, Initial residual = 0.135933, Final residual = 0.000882893, No Iterations 1
DICPCG:  Solving for p, Initial residual = 0.412409, Final residual = 7.30919e-07, No Iterations 64
diagonal:  Solving for rho, Initial residual = 0, Final residual = 0, No Iterations 0
time step continuity errors : sum local = 2.38179e-09, global = -6.24567e-11, cumulative = -4.96372e-09
PIMPLE: Iteration 2
smoothSolver:  Solving for Ux, Initial residual = 0.00168254, Final residual = 9.4512e-06, No Iterations 1
smoothSolver:  Solving for Uy, Initial residual = 0.00570699, Final residual = 3.4295e-05, No Iterations 1
smoothSolver:  Solving for e, Initial residual = 0.0270449, Final residual = 0.000247802, No Iterations 1
DICPCG:  Solving for p, Initial residual = 0.0212766, Final residual = 9.50664e-07, No Iterations 53
diagonal:  Solving for rho, Initial residual = 0, Final residual = 0, No Iterations 0
time step continuity errors : sum local = 3.40509e-09, global = 3.84067e-10, cumulative = -4.57965e-09
PIMPLE: Iteration 3
smoothSolver:  Solving for Ux, Initial residual = 0.000151725, Final residual = 9.82524e-07, No Iterations 1
smoothSolver:  Solving for Uy, Initial residual = 0.00108398, Final residual = 6.51364e-08, No Iterations 2
smoothSolver:  Solving for e, Initial residual = 0.00287618, Final residual = 3.89599e-07, No Iterations 2
DICPCG:  Solving for p, Initial residual = 0.00221192, Final residual = 8.79296e-07, No Iterations 43
diagonal:  Solving for rho, Initial residual = 0, Final residual = 0, No Iterations 0
time step continuity errors : sum local = 3.0897e-09, global = -4.52261e-10, cumulative = -5.03191e-09
smoothSolver:  Solving for k, Initial residual = 0.0394127, Final residual = 1.06024e-08, No Iterations 3
bounding k, min: 0 max: 5.80458 average: 2.08024
ExecutionTime = 2.03 s  ClockTime = 3 s

Courant Number mean: 0.238002 max: 0.363176
Time = 0.13

PIMPLE: Iteration 1
diagonal:  Solving for rho, Initial residual = 0, Final residual = 0, No Iterations 0
smoothSolver:  Solving for Ux, Initial residual = 0.0399201, Final residual = 0.000265987, No Iterations 1
smoothSolver:  Solving for Uy, Initial residual = 0.0338498, Final residual = 0.000195202, No Iterations 1
smoothSolver:  Solving for e, Initial residual = 0.117641, Final residual = 0.00073846, No Iterations 1
DICPCG:  Solving for p, Initial residual = 0.324989, Final residual = 9.52216e-07, No Iterations 64
diagonal:  Solving for rho, Initial residual = 0, Final residual = 0, No Iterations 0
time step continuity errors : sum local = 3.90548e-09, global = -3.29868e-10, cumulative = -5.36178e-09
PIMPLE: Iteration 2
smoothSolver:  Solving for Ux, Initial residual = 0.0012872, Final residual = 7.51375e-06, No Iterations 1
smoothSolver:  Solving for Uy, Initial residual = 0.00570933, Final residual = 3.29154e-05, No Iterations 1
smoothSolver:  Solving for e, Initial residual = 0.0314518, Final residual = 0.000267814, No Iterations 1
DICPCG:  Solving for p, Initial residual = 0.0174011, Final residual = 8.80809e-07, No Iterations 52
diagonal:  Solving for rho, Initial residual = 0, Final residual = 0, No Iterations 0
time step continuity errors : sum local = 4.55697e-09, global = 5.75982e-10, cumulative = -4.7858e-09
PIMPLE: Iteration 3
smoothSolver:  Solving for Ux, Initial residual = 0.000176659, Final residual = 9.17874e-09, No Iterations 2
smoothSolver:  Solving for Uy, Initial residual = 0.000993693, Final residual = 5.92423e-08, No Iterations 2
smoothSolver:  Solving for e, Initial residual = 0.00210017, Final residual = 2.76651e-07, No Iterations 2
DICPCG:  Solving for p, Initial residual = 0.00116452, Final residual = 8.08796e-07, No Iterations 39
diagonal:  Solving for rho, Initial residual = 0, Final residual = 0, No Iterations 0
time step continuity errors : sum local = 4.11997e-09, global = -4.37375e-10, cumulative = -5.22317e-09
smoothSolver:  Solving for k, Initial residual = 0.0406606, Final residual = 1.16086e-08, No Iterations 3
bounding k, min: 0 max: 5.71446 average: 2.08339
ExecutionTime = 2.1 s  ClockTime = 3 s

Courant Number mean: 0.230721 max: 0.366692
Time = 0.135

PIMPLE: Iteration 1
diagonal:  Solving for rho, Initial residual = 0, Final residual = 0, No Iterations 0
smoothSolver:  Solving for Ux, Initial residual = 0.0478857, Final residual = 0.000290157, No Iterations 1
smoothSolver:  Solving for Uy, Initial residual = 0.0252661, Final residual = 0.000152528, No Iterations 1
smoothSolver:  Solving for e, Initial residual = 0.111907, Final residual = 0.000771452, No Iterations 1
DICPCG:  Solving for p, Initial residual = 0.249465, Final residual = 7.93196e-07, No Iterations 60
diagonal:  Solving for rho, Initial residual = 0, Final residual = 0, No Iterations 0
time step continuity errors : sum local = 4.17395e-09, global = 8.02334e-11, cumulative = -5.14294e-09
PIMPLE: Iteration 2
smoothSolver:  Solving for Ux, Initial residual = 0.000913132, Final residual = 5.97883e-06, No Iterations 1
smoothSolver:  Solving for Uy, Initial residual = 0.00451102, Final residual = 2.37312e-05, No Iterations 1
smoothSolver:  Solving for e, Initial residual = 0.0302461, Final residual = 0.000241144, No Iterations 1
DICPCG:  Solving for p, Initial residual = 0.0139468, Final residual = 7.90184e-07, No Iterations 52
diagonal:  Solving for rho, Initial residual = 0, Final residual = 0, No Iterations 0
time step continuity errors : sum local = 5.00016e-09, global = 7.52889e-10, cumulative = -4.39005e-09
PIMPLE: Iteration 3
smoothSolver:  Solving for Ux, Initial residual = 0.000169153, Final residual = 9.71741e-07, No Iterations 1
smoothSolver:  Solving for Uy, Initial residual = 0.000816208, Final residual = 4.46045e-08, No Iterations 2
smoothSolver:  Solving for e, Initial residual = 0.00173338, Final residual = 2.08992e-07, No Iterations 2
DICPCG:  Solving for p, Initial residual = 0.000900228, Final residual = 9.62338e-07, No Iterations 38
diagonal:  Solving for rho, Initial residual = 0, Final residual = 0, No Iterations 0
time step continuity errors : sum local = 6.01033e-09, global = 4.72382e-10, cumulative = -3.91767e-09
smoothSolver:  Solving for k, Initial residual = 0.0420239, Final residual = 1.03456e-08, No Iterations 3
bounding k, min: 0 max: 5.67983 average: 2.06275
ExecutionTime = 2.16 s  ClockTime = 3 s

Courant Number mean: 0.221834 max: 0.36888
Time = 0.14

PIMPLE: Iteration 1
diagonal:  Solving for rho, Initial residual = 0, Final residual = 0, No Iterations 0
smoothSolver:  Solving for Ux, Initial residual = 0.0513887, Final residual = 0.000286103, No Iterations 1
smoothSolver:  Solving for Uy, Initial residual = 0.0263699, Final residual = 0.000153985, No Iterations 1
smoothSolver:  Solving for e, Initial residual = 0.107587, Final residual = 0.000828154, No Iterations 1
DICPCG:  Solving for p, Initial residual = 0.20814, Final residual = 7.29602e-07, No Iterations 58
diagonal:  Solving for rho, Initial residual = 0, Final residual = 0, No Iterations 0
time step continuity errors : sum local = 4.49321e-09, global = 1.53436e-10, cumulative = -3.76423e-09
PIMPLE: Iteration 2
smoothSolver:  Solving for Ux, Initial residual = 0.00104517, Final residual = 7.23491e-06, No Iterations 1
smoothSolver:  Solving for Uy, Initial residual = 0.00305339, Final residual = 1.47247e-05, No Iterations 1
smoothSolver:  Solving for e, Initial residual = 0.0256785, Final residual = 0.000200794, No Iterations 1
DICPCG:  Solving for p, Initial residual = 0.0112371, Final residual = 8.94818e-07, No Iterations 50
diagonal:  Solving for rho, Initial residual = 0, Final residual = 0, No Iterations 0
time step continuity errors : sum local = 6.01748e-09, global = 1.03061e-09, cumulative = -2.73362e-09
PIMPLE: Iteration 3
smoothSolver:  Solving for Ux, Initial residual = 0.00013494, Final residual = 7.29251e-07, No Iterations 1
smoothSolver:  Solving for Uy, Initial residual = 0.000616878, Final residual = 2.80483e-08, No Iterations 2
smoothSolver:  Solving for e, Initial residual = 0.00179346, Final residual = 2.23031e-07, No Iterations 2
DICPCG:  Solving for p, Initial residual = 0.000917737, Final residual = 8.94501e-07, No Iterations 38
diagonal:  Solving for rho, Initial residual = 0, Final residual = 0, No Iterations 0
time step continuity errors : sum local = 5.95583e-09, global = 7.76412e-10, cumulative = -1.9572e-09
smoothSolver:  Solving for k, Initial residual = 0.0445795, Final residual = 8.85974e-09, No Iterations 3
bounding k, min: 0 max: 5.61306 average: 2.02359
ExecutionTime = 2.23 s  ClockTime = 3 s

Courant Number mean: 0.212195 max: 0.369396
Time = 0.145

PIMPLE: Iteration 1
diagonal:  Solving for rho, Initial residual = 0, Final residual = 0, No Iterations 0
smoothSolver:  Solving for Ux, Initial residual = 0.0534719, Final residual = 0.000283465, No Iterations 1
smoothSolver:  Solving for Uy, Initial residual = 0.0301069, Final residual = 0.000159425, No Iterations 1
smoothSolver:  Solving for e, Initial residual = 0.103844, Final residual = 0.000862243, No Iterations 1
DICPCG:  Solving for p, Initial residual = 0.184299, Final residual = 8.30817e-07, No Iterations 53
diagonal:  Solving for rho, Initial residual = 0, Final residual = 0, No Iterations 0
time step continuity errors : sum local = 5.55732e-09, global = -3.52929e-11, cumulative = -1.9925e-09
PIMPLE: Iteration 2
smoothSolver:  Solving for Ux, Initial residual = 0.00160834, Final residual = 9.88449e-06, No Iterations 1
smoothSolver:  Solving for Uy, Initial residual = 0.00175569, Final residual = 9.01334e-06, No Iterations 1
smoothSolver:  Solving for e, Initial residual = 0.0167575, Final residual = 0.000132106, No Iterations 1
DICPCG:  Solving for p, Initial residual = 0.0069269, Final residual = 9.48701e-07, No Iterations 47
diagonal:  Solving for rho, Initial residual = 0, Final residual = 0, No Iterations 0
time step continuity errors : sum local = 6.46883e-09, global = 4.09366e-10, cumulative = -1.58313e-09
PIMPLE: Iteration 3
smoothSolver:  Solving for Ux, Initial residual = 8.73182e-05, Final residual = 4.73407e-07, No Iterations 1
smoothSolver:  Solving for Uy, Initial residual = 0.000463045, Final residual = 1.93192e-08, No Iterations 2
smoothSolver:  Solving for e, Initial residual = 0.00167565, Final residual = 2.15503e-07, No Iterations 2
DICPCG:  Solving for p, Initial residual = 0.000791222, Final residual = 7.17261e-07, No Iterations 37
diagonal:  Solving for rho, Initial residual = 0, Final residual = 0, No Iterations 0
time step continuity errors : sum local = 4.85809e-09, global = 6.53278e-10, cumulative = -9.29854e-10
smoothSolver:  Solving for k, Initial residual = 0.0464383, Final residual = 8.18004e-09, No Iterations 3
bounding k, min: 0 max: 5.50603 average: 1.97016
ExecutionTime = 2.29 s  ClockTime = 3 s

Courant Number mean: 0.202596 max: 0.367351
Time = 0.15

PIMPLE: Iteration 1
diagonal:  Solving for rho, Initial residual = 0, Final residual = 0, No Iterations 0
smoothSolver:  Solving for Ux, Initial residual = 0.0527271, Final residual = 0.00028257, No Iterations 1
smoothSolver:  Solving for Uy, Initial residual = 0.0298421, Final residual = 0.000149832, No Iterations 1
smoothSolver:  Solving for e, Initial residual = 0.104788, Final residual = 0.000884525, No Iterations 1
DICPCG:  Solving for p, Initial residual = 0.182791, Final residual = 9.58009e-07, No Iterations 55
diagonal:  Solving for rho, Initial residual = 0, Final residual = 0, No Iterations 0
time step continuity errors : sum local = 6.70943e-09, global = 1.79937e-10, cumulative = -7.49917e-10
PIMPLE: Iteration 2
smoothSolver:  Solving for Ux, Initial residual = 0.00182278, Final residual = 1.03705e-05, No Iterations 1
smoothSolver:  Solving for Uy, Initial residual = 0.00172928, Final residual = 9.59588e-06, No Iterations 1
smoothSolver:  Solving for e, Initial residual = 0.0129683, Final residual = 0.000108075, No Iterations 1
DICPCG:  Solving for p, Initial residual = 0.0065497, Final residual = 8.92545e-07, No Iterations 45
diagonal:  Solving for rho, Initial residual = 0, Final residual = 0, No Iterations 0
time step continuity errors : sum local = 6.2694e-09, global = 2.70443e-10, cumulative = -4.79474e-10
PIMPLE: Iteration 3
smoothSolver:  Solving for Ux, Initial residual = 6.74251e-05, Final residual = 4.37846e-07, No Iterations 1
smoothSolver:  Solving for Uy, Initial residual = 0.000431262, Final residual = 1.66201e-08, No Iterations 2
smoothSolver:  Solving for e, Initial residual = 0.00120709, Final residual = 1.57725e-07, No Iterations 2
DICPCG:  Solving for p, Initial residual = 0.000541723, Final residual = 9.82759e-07, No Iterations 33
diagonal:  Solving for rho, Initial residual = 0, Final residual = 0, No Iterations 0
time step continuity errors : sum local = 6.86027e-09, global = 8.04943e-10, cumulative = 3.2547e-10
smoothSolver:  Solving for k, Initial residual = 0.0484838, Final residual = 7.7074e-09, No Iterations 3
bounding k, min: 0 max: 5.35145 average: 1.90591
ExecutionTime = 2.36 s  ClockTime = 3 s

Courant Number mean: 0.193587 max: 0.361728
Time = 0.155

PIMPLE: Iteration 1
diagonal:  Solving for rho, Initial residual = 0, Final residual = 0, No Iterations 0
smoothSolver:  Solving for Ux, Initial residual = 0.0507281, Final residual = 0.000283279, No Iterations 1
smoothSolver:  Solving for Uy, Initial residual = 0.0257147, Final residual = 0.000124738, No Iterations 1
smoothSolver:  Solving for e, Initial residual = 0.103647, Final residual = 0.000848908, No Iterations 1
DICPCG:  Solving for p, Initial residual = 0.168435, Final residual = 5.06648e-07, No Iterations 56
diagonal:  Solving for rho, Initial residual = 0, Final residual = 0, No Iterations 0
time step continuity errors : sum local = 3.64858e-09, global = 2.73355e-10, cumulative = 5.98824e-10
PIMPLE: Iteration 2
smoothSolver:  Solving for Ux, Initial residual = 0.00166598, Final residual = 9.04012e-06, No Iterations 1
smoothSolver:  Solving for Uy, Initial residual = 0.00206934, Final residual = 1.06094e-05, No Iterations 1
smoothSolver:  Solving for e, Initial residual = 0.0151133, Final residual = 0.0001275, No Iterations 1
DICPCG:  Solving for p, Initial residual = 0.00753557, Final residual = 8.27617e-07, No Iterations 46
diagonal:  Solving for rho, Initial residual = 0, Final residual = 0, No Iterations 0
time step continuity errors : sum local = 5.85246e-09, global = -3.02549e-10, cumulative = 2.96276e-10
PIMPLE: Iteration 3
smoothSolver:  Solving for Ux, Initial residual = 0.000119993, Final residual = 6.40433e-07, No Iterations 1
smoothSolver:  Solving for Uy, Initial residual = 0.000453225, Final residual = 1.58064e-08, No Iterations 2
smoothSolver:  Solving for e, Initial residual = 0.000931713, Final residual = 1.45097e-07, No Iterations 2
DICPCG:  Solving for p, Initial residual = 0.000420274, Final residual = 9.67533e-07, No Iterations 34
diagonal:  Solving for rho, Initial residual = 0, Final residual = 0, No Iterations 0
time step continuity errors : sum local = 6.80697e-09, global = 1.82553e-10, cumulative = 4.78828e-10
smoothSolver:  Solving for k, Initial residual = 0.0519923, Final residual = 8.24124e-09, No Iterations 3
bounding k, min: 0 max: 5.14219 average: 1.83424
ExecutionTime = 2.42 s  ClockTime = 3 s

Courant Number mean: 0.185373 max: 0.351682
Time = 0.16

PIMPLE: Iteration 1
diagonal:  Solving for rho, Initial residual = 0, Final residual = 0, No Iterations 0
smoothSolver:  Solving for Ux, Initial residual = 0.055071, Final residual = 0.000312094, No Iterations 1
smoothSolver:  Solving for Uy, Initial residual = 0.0207614, Final residual = 9.96457e-05, No Iterations 1
smoothSolver:  Solving for e, Initial residual = 0.0898428, Final residual = 0.000711271, No Iterations 1
DICPCG:  Solving for p, Initial residual = 0.135629, Final residual = 6.72903e-07, No Iterations 55
diagonal:  Solving for rho, Initial residual = 0, Final residual = 0, No Iterations 0
time step continuity errors : sum local = 4.8395e-09, global = -1.22897e-10, cumulative = 3.55932e-10
PIMPLE: Iteration 2
smoothSolver:  Solving for Ux, Initial residual = 0.00137532, Final residual = 7.45454e-06, No Iterations 1
smoothSolver:  Solving for Uy, Initial residual = 0.0026396, Final residual = 1.25255e-05, No Iterations 1
smoothSolver:  Solving for e, Initial residual = 0.0199676, Final residual = 0.000146499, No Iterations 1
DICPCG:  Solving for p, Initial residual = 0.00959925, Final residual = 8.9845e-07, No Iterations 47
diagonal:  Solving for rho, Initial residual = 0, Final residual = 0, No Iterations 0
time step continuity errors : sum local = 6.24418e-09, global = -1.06836e-10, cumulative = 2.49096e-10
PIMPLE: Iteration 3
smoothSolver:  Solving for Ux, Initial residual = 0.00014105, Final residual = 6.74332e-07, No Iterations 1
smoothSolver:  Solving for Uy, Initial residual = 0.000427338, Final residual = 1.38269e-08, No Iterations 2
smoothSolver:  Solving for e, Initial residual = 0.00107764, Final residual = 1.42494e-07, No Iterations 2
DICPCG:  Solving for p, Initial residual = 0.000583311, Final residual = 8.48183e-07, No Iterations 35
diagonal:  Solving for rho, Initial residual = 0, Final residual = 0, No Iterations 0
time step continuity errors : sum local = 5.87538e-09, global = 2.92414e-10, cumulative = 5.41509e-10
smoothSolver:  Solving for k, Initial residual = 0.0550912, Final residual = 9.25563e-09, No Iterations 3
bounding k, min: 0 max: 4.87397 average: 1.75884
ExecutionTime = 2.49 s  ClockTime = 3 s

Courant Number mean: 0.177822 max: 0.336737
Time = 0.165

PIMPLE: Iteration 1
diagonal:  Solving for rho, Initial residual = 0, Final residual = 0, No Iterations 0
smoothSolver:  Solving for Ux, Initial residual = 0.0637764, Final residual = 0.000342724, No Iterations 1
smoothSolver:  Solving for Uy, Initial residual = 0.0194408, Final residual = 9.2655e-05, No Iterations 1
smoothSolver:  Solving for e, Initial residual = 0.0652599, Final residual = 0.000505122, No Iterations 1
DICPCG:  Solving for p, Initial residual = 0.0946981, Final residual = 6.03983e-07, No Iterations 54
diagonal:  Solving for rho, Initial residual = 0, Final residual = 0, No Iterations 0
time step continuity errors : sum local = 4.2418e-09, global = -1.84423e-10, cumulative = 3.57086e-10
PIMPLE: Iteration 2
smoothSolver:  Solving for Ux, Initial residual = 0.00107784, Final residual = 6.25979e-06, No Iterations 1
smoothSolver:  Solving for Uy, Initial residual = 0.0028861, Final residual = 1.34079e-05, No Iterations 1
smoothSolver:  Solving for e, Initial residual = 0.0242564, Final residual = 0.000180399, No Iterations 1
DICPCG:  Solving for p, Initial residual = 0.0113988, Final residual = 9.40218e-07, No Iterations 48
diagonal:  Solving for rho, Initial residual = 0, Final residual = 0, No Iterations 0
time step continuity errors : sum local = 6.36032e-09, global = 7.89974e-11, cumulative = 4.36084e-10
PIMPLE: Iteration 3
smoothSolver:  Solving for Ux, Initial residual = 0.000135442, Final residual = 6.31243e-07, No Iterations 1
smoothSolver:  Solving for Uy, Initial residual = 0.000377043, Final residual = 1.36784e-08, No Iterations 2
smoothSolver:  Solving for e, Initial residual = 0.00125875, Final residual = 1.47796e-07, No Iterations 2
DICPCG:  Solving for p, Initial residual = 0.000669568, Final residual = 8.06031e-07, No Iterations 33
diagonal:  Solving for rho, Initial residual = 0, Final residual = 0, No Iterations 0
time step continuity errors : sum local = 5.43557e-09, global = 8.83094e-10, cumulative = 1.31918e-09
smoothSolver:  Solving for k, Initial residual = 0.0572284, Final residual = 9.549e-09, No Iterations 3
bounding k, min: 0 max: 4.54926 average: 1.68329
ExecutionTime = 2.55 s  ClockTime = 3 s

Courant Number mean: 0.170591 max: 0.316967
Time = 0.17

PIMPLE: Iteration 1
diagonal:  Solving for rho, Initial residual = 0, Final residual = 0, No Iterations 0
smoothSolver:  Solving for Ux, Initial residual = 0.0663366, Final residual = 0.000340578, No Iterations 1
smoothSolver:  Solving for Uy, Initial residual = 0.0197144, Final residual = 9.21282e-05, No Iterations 1
smoothSolver:  Solving for e, Initial residual = 0.0434731, Final residual = 0.000338491, No Iterations 1
DICPCG:  Solving for p, Initial residual = 0.0723024, Final residual = 5.04374e-07, No Iterations 57
diagonal:  Solving for rho, Initial residual = 0, Final residual = 0, No Iterations 0
time step continuity errors : sum local = 3.41147e-09, global = -5.31894e-11, cumulative = 1.26599e-09
PIMPLE: Iteration 2
smoothSolver:  Solving for Ux, Initial residual = 0.00114937, Final residual = 5.88374e-06, No Iterations 1
smoothSolver:  Solving for Uy, Initial residual = 0.00263436, Final residual = 1.23142e-05, No Iterations 1
smoothSolver:  Solving for e, Initial residual = 0.0241163, Final residual = 0.000191306, No Iterations 1
DICPCG:  Solving for p, Initial residual = 0.0113439, Final residual = 9.88438e-07, No Iterations 44
diagonal:  Solving for rho, Initial residual = 0, Final residual = 0, No Iterations 0
time step continuity errors : sum local = 6.44033e-09, global = 4.69327e-11, cumulative = 1.31292e-09
PIMPLE: Iteration 3
smoothSolver:  Solving for Ux, Initial residual = 0.000125323, Final residual = 6.10954e-07, No Iterations 1
smoothSolver:  Solving for Uy, Initial residual = 0.00036551, Final residual = 1.32114e-08, No Iterations 2
smoothSolver:  Solving for e, Initial residual = 0.00107854, Final residual = 1.18441e-07, No Iterations 2
DICPCG:  Solving for p, Initial residual = 0.000538488, Final residual = 9.65993e-07, No Iterations 29
diagonal:  Solving for rho, Initial residual = 0, Final residual = 0, No Iterations 0
time step continuity errors : sum local = 6.3043e-09, global = 2.88149e-11, cumulative = 1.34174e-09
smoothSolver:  Solving for k, Initial residual = 0.0593747, Final residual = 8.90549e-09, No Iterations 3
bounding k, min: 0 max: 4.17967 average: 1.61039
ExecutionTime = 2.61 s  ClockTime = 3 s

Courant Number mean: 0.163295 max: 0.293146
Time = 0.175

PIMPLE: Iteration 1
diagonal:  Solving for rho, Initial residual = 0, Final residual = 0, No Iterations 0
smoothSolver:  Solving for Ux, Initial residual = 0.0622597, Final residual = 0.000306161, No Iterations 1
[...]
smoothSolver:  Solving for Uy, Initial residual = 0.0108478, Final residual = 3.10573e-05, No Iterations 1
smoothSolver:  Solving for e, Initial residual = 0.0317506, Final residual = 0.000130398, No Iterations 1
DICPCG:  Solving for p, Initial residual = 0.455351, Final residual = 9.53526e-07, No Iterations 63
diagonal:  Solving for rho, Initial residual = 0, Final residual = 0, No Iterations 0
time step continuity errors : sum local = 1.07662e-09, global = 3.17155e-11, cumulative = -7.87958e-10
PIMPLE: Iteration 2
smoothSolver:  Solving for Ux, Initial residual = 0.000581038, Final residual = 1.31e-06, No Iterations 1
smoothSolver:  Solving for Uy, Initial residual = 0.000265363, Final residual = 7.32556e-07, No Iterations 1
smoothSolver:  Solving for e, Initial residual = 0.000822028, Final residual = 3.44905e-06, No Iterations 1
DICPCG:  Solving for p, Initial residual = 0.00355299, Final residual = 8.64774e-07, No Iterations 45
diagonal:  Solving for rho, Initial residual = 0, Final residual = 0, No Iterations 0
time step continuity errors : sum local = 1.40902e-09, global = -9.32987e-11, cumulative = -8.81256e-10
PIMPLE: Iteration 3
smoothSolver:  Solving for Ux, Initial residual = 1.45716e-05, Final residual = 3.44226e-08, No Iterations 1
smoothSolver:  Solving for Uy, Initial residual = 0.000246046, Final residual = 6.30053e-07, No Iterations 1
smoothSolver:  Solving for e, Initial residual = 0.000202647, Final residual = 9.35563e-07, No Iterations 1
DICPCG:  Solving for p, Initial residual = 0.000696775, Final residual = 9.27594e-07, No Iterations 37
diagonal:  Solving for rho, Initial residual = 0, Final residual = 0, No Iterations 0
time step continuity errors : sum local = 1.50673e-09, global = 1.6322e-10, cumulative = -7.18036e-10
smoothSolver:  Solving for k, Initial residual = 0.0321891, Final residual = 2.22095e-07, No Iterations 2
bounding k, min: 0 max: 2.02033 average: 0.945885
ExecutionTime = 6.67 s  ClockTime = 8 s

Courant Number mean: 0.120428 max: 0.245982
Time = 0.465

PIMPLE: Iteration 1
diagonal:  Solving for rho, Initial residual = 0, Final residual = 0, No Iterations 0
smoothSolver:  Solving for Ux, Initial residual = 0.0106321, Final residual = 2.7921e-05, No Iterations 1
smoothSolver:  Solving for Uy, Initial residual = 0.0093854, Final residual = 2.65925e-05, No Iterations 1
smoothSolver:  Solving for e, Initial residual = 0.0308863, Final residual = 0.000123904, No Iterations 1
DICPCG:  Solving for p, Initial residual = 0.248171, Final residual = 8.4301e-07, No Iterations 60
diagonal:  Solving for rho, Initial residual = 0, Final residual = 0, No Iterations 0
time step continuity errors : sum local = 1.70324e-09, global = 3.74826e-11, cumulative = -6.80554e-10
PIMPLE: Iteration 2
smoothSolver:  Solving for Ux, Initial residual = 0.000533058, Final residual = 1.16172e-06, No Iterations 1
smoothSolver:  Solving for Uy, Initial residual = 0.000362711, Final residual = 9.59285e-07, No Iterations 1
smoothSolver:  Solving for e, Initial residual = 0.0020528, Final residual = 8.6902e-06, No Iterations 1
DICPCG:  Solving for p, Initial residual = 0.00484451, Final residual = 9.79402e-07, No Iterations 44
diagonal:  Solving for rho, Initial residual = 0, Final residual = 0, No Iterations 0
time step continuity errors : sum local = 2.46071e-09, global = -3.94714e-10, cumulative = -1.07527e-09
PIMPLE: Iteration 3
smoothSolver:  Solving for Ux, Initial residual = 2.66677e-05, Final residual = 5.95652e-08, No Iterations 1
smoothSolver:  Solving for Uy, Initial residual = 0.000229375, Final residual = 5.73703e-07, No Iterations 1
smoothSolver:  Solving for e, Initial residual = 0.000172811, Final residual = 7.89713e-07, No Iterations 1
DICPCG:  Solving for p, Initial residual = 0.000379351, Final residual = 9.95525e-07, No Iterations 33
diagonal:  Solving for rho, Initial residual = 0, Final residual = 0, No Iterations 0
time step continuity errors : sum local = 2.48964e-09, global = 2.59549e-10, cumulative = -8.15718e-10
smoothSolver:  Solving for k, Initial residual = 0.0292139, Final residual = 2.01392e-07, No Iterations 2
bounding k, min: 0 max: 2.02116 average: 0.926497
ExecutionTime = 6.73 s  ClockTime = 8 s

Courant Number mean: 0.122078 max: 0.246004
Time = 0.47

PIMPLE: Iteration 1
diagonal:  Solving for rho, Initial residual = 0, Final residual = 0, No Iterations 0
smoothSolver:  Solving for Ux, Initial residual = 0.0170781, Final residual = 3.99904e-05, No Iterations 1
smoothSolver:  Solving for Uy, Initial residual = 0.00774162, Final residual = 2.16964e-05, No Iterations 1
smoothSolver:  Solving for e, Initial residual = 0.0299322, Final residual = 0.000117057, No Iterations 1
DICPCG:  Solving for p, Initial residual = 0.174503, Final residual = 7.66963e-07, No Iterations 58
diagonal:  Solving for rho, Initial residual = 0, Final residual = 0, No Iterations 0
time step continuity errors : sum local = 2.16729e-09, global = 5.81801e-11, cumulative = -7.57538e-10
PIMPLE: Iteration 2
smoothSolver:  Solving for Ux, Initial residual = 0.000469408, Final residual = 9.85028e-07, No Iterations 1
smoothSolver:  Solving for Uy, Initial residual = 0.000441064, Final residual = 1.12344e-06, No Iterations 1
smoothSolver:  Solving for e, Initial residual = 0.00296023, Final residual = 1.24013e-05, No Iterations 1
DICPCG:  Solving for p, Initial residual = 0.00517322, Final residual = 9.18675e-07, No Iterations 44
diagonal:  Solving for rho, Initial residual = 0, Final residual = 0, No Iterations 0
time step continuity errors : sum local = 2.98395e-09, global = -2.6571e-10, cumulative = -1.02325e-09
PIMPLE: Iteration 3
smoothSolver:  Solving for Ux, Initial residual = 3.54364e-05, Final residual = 7.58557e-08, No Iterations 1
smoothSolver:  Solving for Uy, Initial residual = 0.000201862, Final residual = 4.98475e-07, No Iterations 1
smoothSolver:  Solving for e, Initial residual = 0.000137172, Final residual = 6.1435e-07, No Iterations 1
DICPCG:  Solving for p, Initial residual = 0.000247767, Final residual = 8.66955e-07, No Iterations 31
diagonal:  Solving for rho, Initial residual = 0, Final residual = 0, No Iterations 0
time step continuity errors : sum local = 2.80169e-09, global = 2.83973e-10, cumulative = -7.39275e-10
smoothSolver:  Solving for k, Initial residual = 0.0304411, Final residual = 1.9548e-07, No Iterations 2
bounding k, min: 0 max: 2.02239 average: 0.910255
ExecutionTime = 6.79 s  ClockTime = 8 s

Courant Number mean: 0.124435 max: 0.246045
Time = 0.475

PIMPLE: Iteration 1
diagonal:  Solving for rho, Initial residual = 0, Final residual = 0, No Iterations 0
smoothSolver:  Solving for Ux, Initial residual = 0.0227022, Final residual = 4.97924e-05, No Iterations 1
smoothSolver:  Solving for Uy, Initial residual = 0.00666765, Final residual = 1.85442e-05, No Iterations 1
smoothSolver:  Solving for e, Initial residual = 0.0291269, Final residual = 0.000111616, No Iterations 1
DICPCG:  Solving for p, Initial residual = 0.139869, Final residual = 8.93654e-07, No Iterations 56
diagonal:  Solving for rho, Initial residual = 0, Final residual = 0, No Iterations 0
time step continuity errors : sum local = 3.10309e-09, global = 1.16686e-10, cumulative = -6.2259e-10
PIMPLE: Iteration 2
smoothSolver:  Solving for Ux, Initial residual = 0.000391227, Final residual = 7.88743e-07, No Iterations 1
smoothSolver:  Solving for Uy, Initial residual = 0.0004721, Final residual = 1.18706e-06, No Iterations 1
smoothSolver:  Solving for e, Initial residual = 0.00336, Final residual = 1.38314e-05, No Iterations 1
DICPCG:  Solving for p, Initial residual = 0.00492396, Final residual = 8.2017e-07, No Iterations 44
diagonal:  Solving for rho, Initial residual = 0, Final residual = 0, No Iterations 0
time step continuity errors : sum local = 3.11528e-09, global = -1.68632e-10, cumulative = -7.91222e-10
PIMPLE: Iteration 3
smoothSolver:  Solving for Ux, Initial residual = 3.84946e-05, Final residual = 7.92664e-08, No Iterations 1
smoothSolver:  Solving for Uy, Initial residual = 0.000168966, Final residual = 4.28428e-07, No Iterations 1
smoothSolver:  Solving for e, Initial residual = 0.000126633, Final residual = 5.4854e-07, No Iterations 1
DICPCG:  Solving for p, Initial residual = 0.000218223, Final residual = 9.60469e-07, No Iterations 29
diagonal:  Solving for rho, Initial residual = 0, Final residual = 0, No Iterations 0
time step continuity errors : sum local = 3.63011e-09, global = 1.64383e-10, cumulative = -6.26839e-10
smoothSolver:  Solving for k, Initial residual = 0.0330703, Final residual = 2.0252e-07, No Iterations 2
bounding k, min: 0 max: 2.02387 average: 0.897459
ExecutionTime = 6.86 s  ClockTime = 8 s

Courant Number mean: 0.127367 max: 0.246099
Time = 0.48

PIMPLE: Iteration 1
diagonal:  Solving for rho, Initial residual = 0, Final residual = 0, No Iterations 0
smoothSolver:  Solving for Ux, Initial residual = 0.0273086, Final residual = 5.67212e-05, No Iterations 1
smoothSolver:  Solving for Uy, Initial residual = 0.00647646, Final residual = 1.76873e-05, No Iterations 1
smoothSolver:  Solving for e, Initial residual = 0.0282205, Final residual = 0.000105643, No Iterations 1
DICPCG:  Solving for p, Initial residual = 0.119385, Final residual = 6.13648e-07, No Iterations 54
diagonal:  Solving for rho, Initial residual = 0, Final residual = 0, No Iterations 0
time step continuity errors : sum local = 2.41427e-09, global = 5.29148e-11, cumulative = -5.73924e-10
PIMPLE: Iteration 2
smoothSolver:  Solving for Ux, Initial residual = 0.000302271, Final residual = 5.84613e-07, No Iterations 1
smoothSolver:  Solving for Uy, Initial residual = 0.000451341, Final residual = 1.13964e-06, No Iterations 1
smoothSolver:  Solving for e, Initial residual = 0.00321317, Final residual = 1.29789e-05, No Iterations 1
DICPCG:  Solving for p, Initial residual = 0.00425916, Final residual = 9.48181e-07, No Iterations 43
diagonal:  Solving for rho, Initial residual = 0, Final residual = 0, No Iterations 0
time step continuity errors : sum local = 3.93868e-09, global = -1.33699e-10, cumulative = -7.07622e-10
PIMPLE: Iteration 3
smoothSolver:  Solving for Ux, Initial residual = 3.53441e-05, Final residual = 7.04257e-08, No Iterations 1
smoothSolver:  Solving for Uy, Initial residual = 0.000143884, Final residual = 3.88552e-07, No Iterations 1
smoothSolver:  Solving for e, Initial residual = 0.000129566, Final residual = 5.60757e-07, No Iterations 1
DICPCG:  Solving for p, Initial residual = 0.000205548, Final residual = 9.06459e-07, No Iterations 29
diagonal:  Solving for rho, Initial residual = 0, Final residual = 0, No Iterations 0
time step continuity errors : sum local = 3.74863e-09, global = -3.81908e-10, cumulative = -1.08953e-09
smoothSolver:  Solving for k, Initial residual = 0.0356935, Final residual = 2.21529e-07, No Iterations 2
bounding k, min: 0 max: 2.02543 average: 0.888346
ExecutionTime = 6.92 s  ClockTime = 8 s

Courant Number mean: 0.130726 max: 0.246163
Time = 0.485

PIMPLE: Iteration 1
diagonal:  Solving for rho, Initial residual = 0, Final residual = 0, No Iterations 0
smoothSolver:  Solving for Ux, Initial residual = 0.0308027, Final residual = 6.07831e-05, No Iterations 1
smoothSolver:  Solving for Uy, Initial residual = 0.00645944, Final residual = 1.77923e-05, No Iterations 1
smoothSolver:  Solving for e, Initial residual = 0.0269294, Final residual = 9.85971e-05, No Iterations 1
DICPCG:  Solving for p, Initial residual = 0.104418, Final residual = 6.41988e-07, No Iterations 54
diagonal:  Solving for rho, Initial residual = 0, Final residual = 0, No Iterations 0
time step continuity errors : sum local = 2.70736e-09, global = 3.42251e-11, cumulative = -1.05531e-09
PIMPLE: Iteration 2
smoothSolver:  Solving for Ux, Initial residual = 0.000284491, Final residual = 5.25265e-07, No Iterations 1
smoothSolver:  Solving for Uy, Initial residual = 0.00038101, Final residual = 9.76151e-07, No Iterations 1
smoothSolver:  Solving for e, Initial residual = 0.00261446, Final residual = 1.03945e-05, No Iterations 1
DICPCG:  Solving for p, Initial residual = 0.00330459, Final residual = 9.64774e-07, No Iterations 42
diagonal:  Solving for rho, Initial residual = 0, Final residual = 0, No Iterations 0
time step continuity errors : sum local = 4.18412e-09, global = -1.62076e-10, cumulative = -1.21738e-09
PIMPLE: Iteration 3
smoothSolver:  Solving for Ux, Initial residual = 2.67588e-05, Final residual = 5.22893e-08, No Iterations 1
smoothSolver:  Solving for Uy, Initial residual = 0.000142651, Final residual = 3.99909e-07, No Iterations 1
smoothSolver:  Solving for e, Initial residual = 0.000127536, Final residual = 5.54554e-07, No Iterations 1
DICPCG:  Solving for p, Initial residual = 0.000191932, Final residual = 9.06753e-07, No Iterations 28
diagonal:  Solving for rho, Initial residual = 0, Final residual = 0, No Iterations 0
time step continuity errors : sum local = 3.91841e-09, global = -7.75474e-10, cumulative = -1.99286e-09
smoothSolver:  Solving for k, Initial residual = 0.0380036, Final residual = 2.50623e-07, No Iterations 2
bounding k, min: 0 max: 2.02693 average: 0.883058
ExecutionTime = 6.98 s  ClockTime = 8 s

Courant Number mean: 0.134363 max: 0.24623
Time = 0.49

PIMPLE: Iteration 1
diagonal:  Solving for rho, Initial residual = 0, Final residual = 0, No Iterations 0
smoothSolver:  Solving for Ux, Initial residual = 0.0329525, Final residual = 6.22666e-05, No Iterations 1
smoothSolver:  Solving for Uy, Initial residual = 0.00669212, Final residual = 1.84076e-05, No Iterations 1
smoothSolver:  Solving for e, Initial residual = 0.0252235, Final residual = 8.97118e-05, No Iterations 1
DICPCG:  Solving for p, Initial residual = 0.0905751, Final residual = 8.36148e-07, No Iterations 53
diagonal:  Solving for rho, Initial residual = 0, Final residual = 0, No Iterations 0
time step continuity errors : sum local = 3.64092e-09, global = 6.10454e-11, cumulative = -1.93181e-09
PIMPLE: Iteration 2
smoothSolver:  Solving for Ux, Initial residual = 0.000362416, Final residual = 6.4843e-07, No Iterations 1
smoothSolver:  Solving for Uy, Initial residual = 0.000322838, Final residual = 8.09764e-07, No Iterations 1
smoothSolver:  Solving for e, Initial residual = 0.0019054, Final residual = 7.48067e-06, No Iterations 1
DICPCG:  Solving for p, Initial residual = 0.00253073, Final residual = 9.60619e-07, No Iterations 41
diagonal:  Solving for rho, Initial residual = 0, Final residual = 0, No Iterations 0
time step continuity errors : sum local = 4.22127e-09, global = -2.69197e-10, cumulative = -2.20101e-09
PIMPLE: Iteration 3
smoothSolver:  Solving for Ux, Initial residual = 1.56771e-05, Final residual = 3.12016e-08, No Iterations 1
smoothSolver:  Solving for Uy, Initial residual = 0.000157003, Final residual = 4.31006e-07, No Iterations 1
smoothSolver:  Solving for e, Initial residual = 0.000120263, Final residual = 5.36517e-07, No Iterations 1
DICPCG:  Solving for p, Initial residual = 0.000175148, Final residual = 8.83139e-07, No Iterations 29
diagonal:  Solving for rho, Initial residual = 0, Final residual = 0, No Iterations 0
time step continuity errors : sum local = 3.87105e-09, global = -6.82047e-10, cumulative = -2.88305e-09
smoothSolver:  Solving for k, Initial residual = 0.0401048, Final residual = 2.78016e-07, No Iterations 2
bounding k, min: 0 max: 2.02825 average: 0.881624
ExecutionTime = 7.04 s  ClockTime = 8 s

Courant Number mean: 0.138141 max: 0.246295
Time = 0.495

PIMPLE: Iteration 1
diagonal:  Solving for rho, Initial residual = 0, Final residual = 0, No Iterations 0
smoothSolver:  Solving for Ux, Initial residual = 0.0338697, Final residual = 6.14121e-05, No Iterations 1
smoothSolver:  Solving for Uy, Initial residual = 0.00694609, Final residual = 1.89498e-05, No Iterations 1
smoothSolver:  Solving for e, Initial residual = 0.022743, Final residual = 7.96455e-05, No Iterations 1
DICPCG:  Solving for p, Initial residual = 0.0752984, Final residual = 7.37958e-07, No Iterations 52
diagonal:  Solving for rho, Initial residual = 0, Final residual = 0, No Iterations 0
time step continuity errors : sum local = 3.24258e-09, global = 4.12932e-11, cumulative = -2.84176e-09
PIMPLE: Iteration 2
smoothSolver:  Solving for Ux, Initial residual = 0.000395861, Final residual = 6.93577e-07, No Iterations 1
smoothSolver:  Solving for Uy, Initial residual = 0.000326106, Final residual = 7.91348e-07, No Iterations 1
smoothSolver:  Solving for e, Initial residual = 0.00236565, Final residual = 9.07933e-06, No Iterations 1
DICPCG:  Solving for p, Initial residual = 0.00321151, Final residual = 8.59095e-07, No Iterations 39
diagonal:  Solving for rho, Initial residual = 0, Final residual = 0, No Iterations 0
time step continuity errors : sum local = 3.76567e-09, global = 2.33983e-11, cumulative = -2.81836e-09
PIMPLE: Iteration 3
smoothSolver:  Solving for Ux, Initial residual = 1.10606e-05, Final residual = 2.15312e-08, No Iterations 1
smoothSolver:  Solving for Uy, Initial residual = 0.000171742, Final residual = 4.44536e-07, No Iterations 1
smoothSolver:  Solving for e, Initial residual = 0.00011361, Final residual = 5.20957e-07, No Iterations 1
DICPCG:  Solving for p, Initial residual = 0.000163591, Final residual = 9.76669e-07, No Iterations 29
diagonal:  Solving for rho, Initial residual = 0, Final residual = 0, No Iterations 0
time step continuity errors : sum local = 4.27534e-09, global = -4.50125e-10, cumulative = -3.26849e-09
smoothSolver:  Solving for k, Initial residual = 0.0428354, Final residual = 3.02135e-07, No Iterations 2
bounding k, min: 0 max: 2.02927 average: 0.88397
ExecutionTime = 7.11 s  ClockTime = 8 s

Courant Number mean: 0.141944 max: 0.246352
Time = 0.5

PIMPLE: Iteration 1
diagonal:  Solving for rho, Initial residual = 0, Final residual = 0, No Iterations 0
smoothSolver:  Solving for Ux, Initial residual = 0.0337669, Final residual = 5.87746e-05, No Iterations 1
smoothSolver:  Solving for Uy, Initial residual = 0.00684835, Final residual = 1.86041e-05, No Iterations 1
smoothSolver:  Solving for e, Initial residual = 0.019566, Final residual = 6.79686e-05, No Iterations 1
DICPCG:  Solving for p, Initial residual = 0.0573657, Final residual = 6.60806e-07, No Iterations 47
diagonal:  Solving for rho, Initial residual = 0, Final residual = 0, No Iterations 0
time step continuity errors : sum local = 2.8966e-09, global = 5.99294e-11, cumulative = -3.20856e-09
PIMPLE: Iteration 2
smoothSolver:  Solving for Ux, Initial residual = 0.0003664, Final residual = 6.38414e-07, No Iterations 1
smoothSolver:  Solving for Uy, Initial residual = 0.000372089, Final residual = 8.56318e-07, No Iterations 1
smoothSolver:  Solving for e, Initial residual = 0.00280283, Final residual = 1.05204e-05, No Iterations 1
DICPCG:  Solving for p, Initial residual = 0.00383603, Final residual = 9.8009e-07, No Iterations 39
diagonal:  Solving for rho, Initial residual = 0, Final residual = 0, No Iterations 0
time step continuity errors : sum local = 4.26793e-09, global = -6.60345e-11, cumulative = -3.27459e-09
PIMPLE: Iteration 3
smoothSolver:  Solving for Ux, Initial residual = 1.57422e-05, Final residual = 2.81774e-08, No Iterations 1
smoothSolver:  Solving for Uy, Initial residual = 0.000178535, Final residual = 4.38877e-07, No Iterations 1
smoothSolver:  Solving for e, Initial residual = 0.00011112, Final residual = 5.06526e-07, No Iterations 1
DICPCG:  Solving for p, Initial residual = 0.000165803, Final residual = 7.29987e-07, No Iterations 29
diagonal:  Solving for rho, Initial residual = 0, Final residual = 0, No Iterations 0
time step continuity errors : sum local = 3.17763e-09, global = -2.53143e-10, cumulative = -3.52774e-09
smoothSolver:  Solving for k, Initial residual = 0.0455746, Final residual = 3.17956e-07, No Iterations 2
bounding k, min: 0 max: 2.02993 average: 0.889964
ExecutionTime = 7.3 s  ClockTime = 8 s

End

