/*---------------------------------------------------------------------------*\
  =========                 |
  \\      /  F ield         | OpenFOAM: The Open Source CFD Toolbox
   \\    /   O peration     | Website:  https://openfoam.org
    \\  /    A nd           | Version:  7
     \\/     M anipulation  |
\*---------------------------------------------------------------------------*/
Build  : 7-49b2b3b8b082
Exec   : rhoPimpleFoam
Date   : Apr 06 2023
Time   : 13:57:42
Host   : "c401-013.stampede2.tacc.utexas.edu"
PID    : 177434
I/O    : uncollated
Case   : /home1/07645/eesha_n/SeniorDesign/CooliestModel/src/CFD/circuit_validation
nProcs : 1
sigFpe : Enabling floating point exception trapping (FOAM_SIGFPE).
fileModificationChecking : Monitoring run-time modified files using timeStampMaster (fileModificationSkew 10)
allowSystemOperations : Allowing user-supplied system call operations

// * * * * * * * * * * * * * * * * * * * * * * * * * * * * * * * * * * * * * //
Create time

Create mesh for time = 0


PIMPLE: No convergence criteria found


PIMPLE: No corrector convergence criteria found
        Calculations will do 3 corrections


PIMPLE: Operating solver in transient mode with 3 outer correctors


Reading thermophysical properties

Selecting thermodynamics package 
{
    type            hePsiThermo;
    mixture         pureMixture;
    transport       const;
    thermo          eConst;
    equationOfState perfectGas;
    specie          specie;
    energy          sensibleInternalEnergy;
}

Reading field U

Reading/calculating face flux field phi

pressureControl
    pMax 200000
    pMin 50000

Creating turbulence model

Selecting turbulence model type LES
Selecting LES turbulence model kEqn
Selecting LES delta type cubeRootVol
--> FOAM Warning : 
    From function void Foam::LESModels::cubeRootVolDelta::calcDelta()
    in file LES/LESdeltas/cubeRootVolDelta/cubeRootVolDelta.C at line 55
    Case is 2D, LES is not strictly applicable

bounding k, min: 0 max: 2e-05 average: 0
LES
{
    LESModel        kEqn;
    turbulence      on;
    printCoeffs     on;
    delta           cubeRootVol;
    cubeRootVolCoeffs
    {
        deltaCoeff      1;
    }
    PrandtlCoeffs
    {
        delta           cubeRootVol;
        cubeRootVolCoeffs
        {
            deltaCoeff      1;
        }
        smoothCoeffs
        {
            delta           cubeRootVol;
            cubeRootVolCoeffs
            {
                deltaCoeff      1;
            }
            maxDeltaRatio   1.1;
        }
        Cdelta          0.158;
    }
    vanDriestCoeffs
    {
        delta           cubeRootVol;
        cubeRootVolCoeffs
        {
            deltaCoeff      1;
        }
        smoothCoeffs
        {
            delta           cubeRootVol;
            cubeRootVolCoeffs
            {
                deltaCoeff      1;
            }
            maxDeltaRatio   1.1;
        }
        Aplus           26;
        Cdelta          0.158;
    }
    smoothCoeffs
    {
        delta           cubeRootVol;
        cubeRootVolCoeffs
        {
            deltaCoeff      1;
        }
        maxDeltaRatio   1.1;
    }
    Ce              1.048;
    Ck              0.094;
}

Creating field dpdt

Creating field kinetic energy K

No MRF models present

No finite volume options present
Courant Number mean: 0.2 max: 24

Starting time loop

Courant Number mean: 0.2 max: 24
Time = 0.005

PIMPLE: Iteration 1
diagonal:  Solving for rho, Initial residual = 0, Final residual = 0, No Iterations 0
smoothSolver:  Solving for Ux, Initial residual = 1, Final residual = 3.83744e-06, No Iterations 1
smoothSolver:  Solving for Uy, Initial residual = 1, Final residual = 1.98631e-06, No Iterations 1
smoothSolver:  Solving for e, Initial residual = 1, Final residual = 0.00220729, No Iterations 1
DICPCG:  Solving for p, Initial residual = 1, Final residual = 9.67121e-07, No Iterations 72
diagonal:  Solving for rho, Initial residual = 0, Final residual = 0, No Iterations 0
time step continuity errors : sum local = 2.95359e-07, global = 3.22207e-11, cumulative = 3.22207e-11
PIMPLE: Iteration 2
smoothSolver:  Solving for Ux, Initial residual = 0.318665, Final residual = 0.00257469, No Iterations 6
smoothSolver:  Solving for Uy, Initial residual = 0.119626, Final residual = 0.000568488, No Iterations 6
smoothSolver:  Solving for e, Initial residual = 0.0631589, Final residual = 0.000519321, No Iterations 4
DICPCG:  Solving for p, Initial residual = 0.809469, Final residual = 8.70449e-07, No Iterations 69
diagonal:  Solving for rho, Initial residual = 0, Final residual = 0, No Iterations 0
time step continuity errors : sum local = 1.0486e-07, global = 2.29742e-11, cumulative = 5.51949e-11
PIMPLE: Iteration 3
smoothSolver:  Solving for Ux, Initial residual = 0.522845, Final residual = 6.41451e-07, No Iterations 17
smoothSolver:  Solving for Uy, Initial residual = 0.166625, Final residual = 4.6216e-07, No Iterations 15
smoothSolver:  Solving for e, Initial residual = 0.0458649, Final residual = 4.66228e-07, No Iterations 13
DICPCG:  Solving for p, Initial residual = 0.571694, Final residual = 5.41536e-07, No Iterations 68
diagonal:  Solving for rho, Initial residual = 0, Final residual = 0, No Iterations 0
time step continuity errors : sum local = 7.6542e-08, global = 9.24647e-12, cumulative = 6.44413e-11
smoothSolver:  Solving for k, Initial residual = 0.930307, Final residual = 9.02834e-07, No Iterations 107
bounding k, min: -3.94418e-09 max: 0.00132531 average: 7.5814e-06
ExecutionTime = 0.35 s  ClockTime = 1 s

Courant Number mean: 50.5753 max: 59.2821
Time = 0.01

PIMPLE: Iteration 1
diagonal:  Solving for rho, Initial residual = 0, Final residual = 0, No Iterations 0
smoothSolver:  Solving for Ux, Initial residual = 0.777724, Final residual = 0.00660488, No Iterations 6
smoothSolver:  Solving for Uy, Initial residual = 0.139777, Final residual = 0.000691292, No Iterations 6
smoothSolver:  Solving for e, Initial residual = 0.0580727, Final residual = 0.000577558, No Iterations 5
DICPCG:  Solving for p, Initial residual = 0.716903, Final residual = 9.86637e-07, No Iterations 71
diagonal:  Solving for rho, Initial residual = 0, Final residual = 0, No Iterations 0
time step continuity errors : sum local = 1.99585e-07, global = -1.24077e-11, cumulative = 5.20336e-11
PIMPLE: Iteration 2
smoothSolver:  Solving for Ux, Initial residual = 0.2179, Final residual = 0.00158926, No Iterations 6
smoothSolver:  Solving for Uy, Initial residual = 0.663162, Final residual = 0.00495879, No Iterations 6
smoothSolver:  Solving for e, Initial residual = 0.0336564, Final residual = 0.00032532, No Iterations 5
DICPCG:  Solving for p, Initial residual = 0.775879, Final residual = 6.4382e-07, No Iterations 72
diagonal:  Solving for rho, Initial residual = 0, Final residual = 0, No Iterations 0
time step continuity errors : sum local = 1.13914e-07, global = 2.39683e-11, cumulative = 7.60019e-11
PIMPLE: Iteration 3
smoothSolver:  Solving for Ux, Initial residual = 0.26956, Final residual = 4.5985e-07, No Iterations 16
smoothSolver:  Solving for Uy, Initial residual = 0.467635, Final residual = 6.66456e-07, No Iterations 16
smoothSolver:  Solving for e, Initial residual = 0.0268157, Final residual = 9.45026e-07, No Iterations 12
DICPCG:  Solving for p, Initial residual = 0.612736, Final residual = 7.01934e-07, No Iterations 70
diagonal:  Solving for rho, Initial residual = 0, Final residual = 0, No Iterations 0
time step continuity errors : sum local = 7.13499e-08, global = -1.30409e-11, cumulative = 6.2961e-11
smoothSolver:  Solving for k, Initial residual = 0.902583, Final residual = 8.36902e-07, No Iterations 31
bounding k, min: -1.11557e-09 max: 0.036679 average: 0.000276535
ExecutionTime = 0.43 s  ClockTime = 1 s

Courant Number mean: 50.3701 max: 55.2188
Time = 0.015

PIMPLE: Iteration 1
diagonal:  Solving for rho, Initial residual = 0, Final residual = 0, No Iterations 0
smoothSolver:  Solving for Ux, Initial residual = 0.515024, Final residual = 0.00406966, No Iterations 6
smoothSolver:  Solving for Uy, Initial residual = 0.171428, Final residual = 0.00079575, No Iterations 6
smoothSolver:  Solving for e, Initial residual = 0.0280097, Final residual = 0.000126585, No Iterations 6
DICPCG:  Solving for p, Initial residual = 0.640887, Final residual = 9.01348e-07, No Iterations 71
diagonal:  Solving for rho, Initial residual = 0, Final residual = 0, No Iterations 0
time step continuity errors : sum local = 8.30503e-08, global = 2.49959e-12, cumulative = 6.54605e-11
PIMPLE: Iteration 2
smoothSolver:  Solving for Ux, Initial residual = 0.598291, Final residual = 0.00439301, No Iterations 6
smoothSolver:  Solving for Uy, Initial residual = 0.326857, Final residual = 0.00230537, No Iterations 6
smoothSolver:  Solving for e, Initial residual = 0.0217634, Final residual = 9.87746e-05, No Iterations 6
DICPCG:  Solving for p, Initial residual = 0.506509, Final residual = 8.88009e-07, No Iterations 69
diagonal:  Solving for rho, Initial residual = 0, Final residual = 0, No Iterations 0
time step continuity errors : sum local = 8.08781e-08, global = 9.97157e-12, cumulative = 7.54321e-11
PIMPLE: Iteration 3
smoothSolver:  Solving for Ux, Initial residual = 0.468009, Final residual = 4.62009e-07, No Iterations 17
smoothSolver:  Solving for Uy, Initial residual = 0.161074, Final residual = 9.43184e-07, No Iterations 14
smoothSolver:  Solving for e, Initial residual = 0.01746, Final residual = 7.14509e-07, No Iterations 12
DICPCG:  Solving for p, Initial residual = 0.487371, Final residual = 8.71588e-07, No Iterations 72
diagonal:  Solving for rho, Initial residual = 0, Final residual = 0, No Iterations 0
time step continuity errors : sum local = 4.29631e-08, global = -2.80648e-11, cumulative = 4.73673e-11
smoothSolver:  Solving for k, Initial residual = 0.780204, Final residual = 9.11188e-07, No Iterations 70
bounding k, min: -0.0130123 max: 0.2865 average: 0.00603658
ExecutionTime = 0.53 s  ClockTime = 1 s

Courant Number mean: 48.7175 max: 52.5763
Time = 0.02

PIMPLE: Iteration 1
diagonal:  Solving for rho, Initial residual = 0, Final residual = 0, No Iterations 0
smoothSolver:  Solving for Ux, Initial residual = 0.133833, Final residual = 0.000917144, No Iterations 6
smoothSolver:  Solving for Uy, Initial residual = 0.150724, Final residual = 0.000820976, No Iterations 6
smoothSolver:  Solving for e, Initial residual = 0.0226839, Final residual = 0.000105323, No Iterations 6
DICPCG:  Solving for p, Initial residual = 0.563278, Final residual = 7.36352e-07, No Iterations 70
diagonal:  Solving for rho, Initial residual = 0, Final residual = 0, No Iterations 0
time step continuity errors : sum local = 3.88037e-08, global = -5.33512e-14, cumulative = 4.7314e-11
PIMPLE: Iteration 2
smoothSolver:  Solving for Ux, Initial residual = 0.361547, Final residual = 0.00271179, No Iterations 6
smoothSolver:  Solving for Uy, Initial residual = 0.11218, Final residual = 0.000521131, No Iterations 6
smoothSolver:  Solving for e, Initial residual = 0.0182238, Final residual = 8.78665e-05, No Iterations 6
DICPCG:  Solving for p, Initial residual = 0.447982, Final residual = 5.63071e-07, No Iterations 70
diagonal:  Solving for rho, Initial residual = 0, Final residual = 0, No Iterations 0
time step continuity errors : sum local = 3.20328e-08, global = 6.83112e-12, cumulative = 5.41451e-11
PIMPLE: Iteration 3
smoothSolver:  Solving for Ux, Initial residual = 0.184266, Final residual = 7.28525e-07, No Iterations 15
smoothSolver:  Solving for Uy, Initial residual = 0.107208, Final residual = 7.73092e-07, No Iterations 14
smoothSolver:  Solving for e, Initial residual = 0.0150519, Final residual = 6.09181e-07, No Iterations 12
DICPCG:  Solving for p, Initial residual = 0.429474, Final residual = 7.1319e-07, No Iterations 71
diagonal:  Solving for rho, Initial residual = 0, Final residual = 0, No Iterations 0
time step continuity errors : sum local = 2.50631e-08, global = 9.60728e-12, cumulative = 6.37524e-11
smoothSolver:  Solving for k, Initial residual = 0.513047, Final residual = 5.8259e-07, No Iterations 22
bounding k, min: -0.0296982 max: 0.968494 average: 0.0575239
ExecutionTime = 0.6 s  ClockTime = 1 s

Courant Number mean: 49.8678 max: 53.6595
Time = 0.025

PIMPLE: Iteration 1
diagonal:  Solving for rho, Initial residual = 0, Final residual = 0, No Iterations 0
smoothSolver:  Solving for Ux, Initial residual = 0.0967532, Final residual = 0.000623214, No Iterations 6
smoothSolver:  Solving for Uy, Initial residual = 0.124612, Final residual = 0.000580819, No Iterations 6
smoothSolver:  Solving for e, Initial residual = 0.0187552, Final residual = 9.10659e-05, No Iterations 6
DICPCG:  Solving for p, Initial residual = 0.569929, Final residual = 8.43084e-07, No Iterations 69
diagonal:  Solving for rho, Initial residual = 0, Final residual = 0, No Iterations 0
time step continuity errors : sum local = 3.12503e-08, global = -6.102e-12, cumulative = 5.76504e-11
PIMPLE: Iteration 2
smoothSolver:  Solving for Ux, Initial residual = 0.101232, Final residual = 0.000567273, No Iterations 6
smoothSolver:  Solving for Uy, Initial residual = 0.122982, Final residual = 0.000584573, No Iterations 6
smoothSolver:  Solving for e, Initial residual = 0.0159549, Final residual = 7.98303e-05, No Iterations 6
DICPCG:  Solving for p, Initial residual = 0.509664, Final residual = 8.85973e-07, No Iterations 71
diagonal:  Solving for rho, Initial residual = 0, Final residual = 0, No Iterations 0
time step continuity errors : sum local = 3.52388e-08, global = 1.74078e-11, cumulative = 7.50582e-11
PIMPLE: Iteration 3
smoothSolver:  Solving for Ux, Initial residual = 0.0947503, Final residual = 4.55427e-07, No Iterations 15
smoothSolver:  Solving for Uy, Initial residual = 0.117301, Final residual = 8.46298e-07, No Iterations 14
smoothSolver:  Solving for e, Initial residual = 0.0139881, Final residual = 6.02795e-07, No Iterations 12
DICPCG:  Solving for p, Initial residual = 0.389445, Final residual = 9.48995e-07, No Iterations 71
diagonal:  Solving for rho, Initial residual = 0, Final residual = 0, No Iterations 0
time step continuity errors : sum local = 2.8578e-08, global = -1.54066e-11, cumulative = 5.96515e-11
smoothSolver:  Solving for k, Initial residual = 0.254841, Final residual = 7.95124e-07, No Iterations 20
bounding k, min: -0.000961756 max: 2.64298 average: 0.171698
ExecutionTime = 0.69 s  ClockTime = 1 s

Courant Number mean: 49.6014 max: 54.1249
Time = 0.03

PIMPLE: Iteration 1
diagonal:  Solving for rho, Initial residual = 0, Final residual = 0, No Iterations 0
smoothSolver:  Solving for Ux, Initial residual = 0.0669302, Final residual = 0.000425278, No Iterations 6
smoothSolver:  Solving for Uy, Initial residual = 0.0944247, Final residual = 0.000454258, No Iterations 6
smoothSolver:  Solving for e, Initial residual = 0.0170926, Final residual = 8.80739e-05, No Iterations 6
DICPCG:  Solving for p, Initial residual = 0.48361, Final residual = 9.60862e-07, No Iterations 70
diagonal:  Solving for rho, Initial residual = 0, Final residual = 0, No Iterations 0
time step continuity errors : sum local = 3.39415e-08, global = -2.0468e-11, cumulative = 3.91835e-11
PIMPLE: Iteration 2
smoothSolver:  Solving for Ux, Initial residual = 0.0866172, Final residual = 0.000591749, No Iterations 6
smoothSolver:  Solving for Uy, Initial residual = 0.135161, Final residual = 0.000610112, No Iterations 6
smoothSolver:  Solving for e, Initial residual = 0.0143297, Final residual = 7.71074e-05, No Iterations 6
DICPCG:  Solving for p, Initial residual = 0.513474, Final residual = 9.85854e-07, No Iterations 70
diagonal:  Solving for rho, Initial residual = 0, Final residual = 0, No Iterations 0
time step continuity errors : sum local = 3.35696e-08, global = 2.11144e-11, cumulative = 6.02979e-11
PIMPLE: Iteration 3
smoothSolver:  Solving for Ux, Initial residual = 0.0422945, Final residual = 9.95745e-07, No Iterations 13
smoothSolver:  Solving for Uy, Initial residual = 0.0980601, Final residual = 8.35518e-07, No Iterations 14
smoothSolver:  Solving for e, Initial residual = 0.0126042, Final residual = 6.04557e-07, No Iterations 12
DICPCG:  Solving for p, Initial residual = 0.33754, Final residual = 8.66151e-07, No Iterations 68
diagonal:  Solving for rho, Initial residual = 0, Final residual = 0, No Iterations 0
time step continuity errors : sum local = 2.34319e-08, global = -1.09496e-11, cumulative = 4.93483e-11
smoothSolver:  Solving for k, Initial residual = 0.191907, Final residual = 9.60689e-07, No Iterations 19
bounding k, min: -5.08147e-07 max: 4.40333 average: 0.425205
ExecutionTime = 0.77 s  ClockTime = 1 s

Courant Number mean: 49.6368 max: 54.2659
Time = 0.035

PIMPLE: Iteration 1
diagonal:  Solving for rho, Initial residual = 0, Final residual = 0, No Iterations 0
smoothSolver:  Solving for Ux, Initial residual = 0.0602978, Final residual = 0.000437914, No Iterations 6
smoothSolver:  Solving for Uy, Initial residual = 0.0986719, Final residual = 0.000475353, No Iterations 6
smoothSolver:  Solving for e, Initial residual = 0.0157335, Final residual = 8.6297e-05, No Iterations 6
DICPCG:  Solving for p, Initial residual = 0.459903, Final residual = 9.83575e-07, No Iterations 70
diagonal:  Solving for rho, Initial residual = 0, Final residual = 0, No Iterations 0
time step continuity errors : sum local = 3.37567e-08, global = -1.91366e-11, cumulative = 3.02118e-11
PIMPLE: Iteration 2
smoothSolver:  Solving for Ux, Initial residual = 0.0810596, Final residual = 0.000595076, No Iterations 6
smoothSolver:  Solving for Uy, Initial residual = 0.11819, Final residual = 0.000553371, No Iterations 6
smoothSolver:  Solving for e, Initial residual = 0.0130309, Final residual = 7.6583e-05, No Iterations 6
DICPCG:  Solving for p, Initial residual = 0.438725, Final residual = 9.30268e-07, No Iterations 68
diagonal:  Solving for rho, Initial residual = 0, Final residual = 0, No Iterations 0
time step continuity errors : sum local = 3.19473e-08, global = -2.50545e-11, cumulative = 5.15731e-12
PIMPLE: Iteration 3
smoothSolver:  Solving for Ux, Initial residual = 0.0511979, Final residual = 6.24988e-07, No Iterations 14
smoothSolver:  Solving for Uy, Initial residual = 0.0909942, Final residual = 7.58664e-07, No Iterations 14
smoothSolver:  Solving for e, Initial residual = 0.011311, Final residual = 6.40494e-07, No Iterations 12
DICPCG:  Solving for p, Initial residual = 0.289221, Final residual = 8.03082e-07, No Iterations 69
diagonal:  Solving for rho, Initial residual = 0, Final residual = 0, No Iterations 0
time step continuity errors : sum local = 2.16185e-08, global = -7.60043e-12, cumulative = -2.44312e-12
smoothSolver:  Solving for k, Initial residual = 0.0985254, Final residual = 8.91814e-07, No Iterations 15
bounding k, min: -0.000795619 max: 5.13824 average: 0.635371
ExecutionTime = 0.85 s  ClockTime = 1 s

Courant Number mean: 49.7393 max: 54.0064
Time = 0.04

PIMPLE: Iteration 1
diagonal:  Solving for rho, Initial residual = 0, Final residual = 0, No Iterations 0
smoothSolver:  Solving for Ux, Initial residual = 0.0522943, Final residual = 0.000420845, No Iterations 6
smoothSolver:  Solving for Uy, Initial residual = 0.087414, Final residual = 0.000413098, No Iterations 6
smoothSolver:  Solving for e, Initial residual = 0.0142476, Final residual = 8.18699e-05, No Iterations 6
DICPCG:  Solving for p, Initial residual = 0.425728, Final residual = 8.90935e-07, No Iterations 67
diagonal:  Solving for rho, Initial residual = 0, Final residual = 0, No Iterations 0
time step continuity errors : sum local = 2.7755e-08, global = -2.74865e-11, cumulative = -2.99296e-11
PIMPLE: Iteration 2
smoothSolver:  Solving for Ux, Initial residual = 0.0532918, Final residual = 0.00041934, No Iterations 6
smoothSolver:  Solving for Uy, Initial residual = 0.101647, Final residual = 0.000491186, No Iterations 6
smoothSolver:  Solving for e, Initial residual = 0.0117738, Final residual = 7.36669e-05, No Iterations 6
DICPCG:  Solving for p, Initial residual = 0.462818, Final residual = 6.25817e-07, No Iterations 70
diagonal:  Solving for rho, Initial residual = 0, Final residual = 0, No Iterations 0
time step continuity errors : sum local = 1.84882e-08, global = 9.02256e-12, cumulative = -2.09071e-11
PIMPLE: Iteration 3
smoothSolver:  Solving for Ux, Initial residual = 0.0368206, Final residual = 5.33503e-07, No Iterations 14
smoothSolver:  Solving for Uy, Initial residual = 0.0811663, Final residual = 7.30703e-07, No Iterations 14
smoothSolver:  Solving for e, Initial residual = 0.0104428, Final residual = 6.4915e-07, No Iterations 12
DICPCG:  Solving for p, Initial residual = 0.277789, Final residual = 7.93234e-07, No Iterations 70
diagonal:  Solving for rho, Initial residual = 0, Final residual = 0, No Iterations 0
time step continuity errors : sum local = 1.99874e-08, global = -1.3595e-11, cumulative = -3.45021e-11
smoothSolver:  Solving for k, Initial residual = 0.0655325, Final residual = 6.57669e-07, No Iterations 16
bounding k, min: -8.47229e-06 max: 5.95399 average: 0.826667
ExecutionTime = 0.93 s  ClockTime = 1 s

Courant Number mean: 49.7481 max: 54.3072
Time = 0.045

PIMPLE: Iteration 1
diagonal:  Solving for rho, Initial residual = 0, Final residual = 0, No Iterations 0
smoothSolver:  Solving for Ux, Initial residual = 0.0492346, Final residual = 0.000405988, No Iterations 6
smoothSolver:  Solving for Uy, Initial residual = 0.0774847, Final residual = 0.000381503, No Iterations 6
smoothSolver:  Solving for e, Initial residual = 0.0131492, Final residual = 7.83068e-05, No Iterations 6
DICPCG:  Solving for p, Initial residual = 0.371645, Final residual = 9.97652e-07, No Iterations 68
diagonal:  Solving for rho, Initial residual = 0, Final residual = 0, No Iterations 0
time step continuity errors : sum local = 2.98477e-08, global = -3.82968e-12, cumulative = -3.83318e-11
PIMPLE: Iteration 2
smoothSolver:  Solving for Ux, Initial residual = 0.0489004, Final residual = 0.000396351, No Iterations 6
smoothSolver:  Solving for Uy, Initial residual = 0.0936872, Final residual = 0.000455457, No Iterations 6
smoothSolver:  Solving for e, Initial residual = 0.0107519, Final residual = 7.05231e-05, No Iterations 6
DICPCG:  Solving for p, Initial residual = 0.457179, Final residual = 8.20808e-07, No Iterations 71
diagonal:  Solving for rho, Initial residual = 0, Final residual = 0, No Iterations 0
time step continuity errors : sum local = 2.26206e-08, global = 1.13209e-11, cumulative = -2.70108e-11
PIMPLE: Iteration 3
smoothSolver:  Solving for Ux, Initial residual = 0.0289645, Final residual = 4.73491e-07, No Iterations 14
smoothSolver:  Solving for Uy, Initial residual = 0.0719726, Final residual = 6.34001e-07, No Iterations 14
smoothSolver:  Solving for e, Initial residual = 0.00969733, Final residual = 6.40604e-07, No Iterations 12
DICPCG:  Solving for p, Initial residual = 0.261766, Final residual = 6.24924e-07, No Iterations 68
diagonal:  Solving for rho, Initial residual = 0, Final residual = 0, No Iterations 0
time step continuity errors : sum local = 1.41313e-08, global = -9.3391e-13, cumulative = -2.79448e-11
smoothSolver:  Solving for k, Initial residual = 0.0353402, Final residual = 9.69112e-07, No Iterations 15
bounding k, min: -0.000844601 max: 6.49533 average: 0.933945
ExecutionTime = 1.02 s  ClockTime = 2 s

Courant Number mean: 49.7497 max: 54.6719
Time = 0.05

PIMPLE: Iteration 1
diagonal:  Solving for rho, Initial residual = 0, Final residual = 0, No Iterations 0
smoothSolver:  Solving for Ux, Initial residual = 0.0379504, Final residual = 0.000317415, No Iterations 6
smoothSolver:  Solving for Uy, Initial residual = 0.063502, Final residual = 0.000337266, No Iterations 6
smoothSolver:  Solving for e, Initial residual = 0.012067, Final residual = 7.31923e-05, No Iterations 6
DICPCG:  Solving for p, Initial residual = 0.366551, Final residual = 9.66748e-07, No Iterations 70
diagonal:  Solving for rho, Initial residual = 0, Final residual = 0, No Iterations 0
time step continuity errors : sum local = 2.66112e-08, global = -2.17021e-11, cumulative = -4.96468e-11
PIMPLE: Iteration 2
smoothSolver:  Solving for Ux, Initial residual = 0.0413284, Final residual = 0.000334322, No Iterations 6
smoothSolver:  Solving for Uy, Initial residual = 0.0798181, Final residual = 0.000403159, No Iterations 6
smoothSolver:  Solving for e, Initial residual = 0.00983922, Final residual = 6.6418e-05, No Iterations 6
DICPCG:  Solving for p, Initial residual = 0.424318, Final residual = 7.46627e-07, No Iterations 70
diagonal:  Solving for rho, Initial residual = 0, Final residual = 0, No Iterations 0
time step continuity errors : sum local = 1.92474e-08, global = 1.28631e-11, cumulative = -3.67838e-11
PIMPLE: Iteration 3
smoothSolver:  Solving for Ux, Initial residual = 0.0260928, Final residual = 8.98032e-07, No Iterations 13
smoothSolver:  Solving for Uy, Initial residual = 0.0562219, Final residual = 5.30963e-07, No Iterations 14
smoothSolver:  Solving for e, Initial residual = 0.00881477, Final residual = 5.9066e-07, No Iterations 12
DICPCG:  Solving for p, Initial residual = 0.24763, Final residual = 9.08258e-07, No Iterations 68
diagonal:  Solving for rho, Initial residual = 0, Final residual = 0, No Iterations 0
time step continuity errors : sum local = 1.83692e-08, global = -5.88933e-13, cumulative = -3.73727e-11
smoothSolver:  Solving for k, Initial residual = 0.0169075, Final residual = 8.40475e-07, No Iterations 13
bounding k, min: -2.48785e-05 max: 6.58795 average: 0.985535
ExecutionTime = 1.09 s  ClockTime = 2 s

Courant Number mean: 49.7947 max: 54.7847
Time = 0.055

PIMPLE: Iteration 1
diagonal:  Solving for rho, Initial residual = 0, Final residual = 0, No Iterations 0
smoothSolver:  Solving for Ux, Initial residual = 0.0287749, Final residual = 0.000243263, No Iterations 6
smoothSolver:  Solving for Uy, Initial residual = 0.0523742, Final residual = 0.000289703, No Iterations 6
smoothSolver:  Solving for e, Initial residual = 0.01088, Final residual = 6.69282e-05, No Iterations 6
DICPCG:  Solving for p, Initial residual = 0.347745, Final residual = 6.63108e-07, No Iterations 70
diagonal:  Solving for rho, Initial residual = 0, Final residual = 0, No Iterations 0
time step continuity errors : sum local = 1.62747e-08, global = -1.32281e-11, cumulative = -5.06008e-11
PIMPLE: Iteration 2
smoothSolver:  Solving for Ux, Initial residual = 0.0296114, Final residual = 0.00024359, No Iterations 6
smoothSolver:  Solving for Uy, Initial residual = 0.0669512, Final residual = 0.000357067, No Iterations 6
smoothSolver:  Solving for e, Initial residual = 0.0090098, Final residual = 6.14516e-05, No Iterations 6
DICPCG:  Solving for p, Initial residual = 0.402415, Final residual = 8.77538e-07, No Iterations 69
diagonal:  Solving for rho, Initial residual = 0, Final residual = 0, No Iterations 0
time step continuity errors : sum local = 2.02239e-08, global = 2.83438e-11, cumulative = -2.2257e-11
PIMPLE: Iteration 3
smoothSolver:  Solving for Ux, Initial residual = 0.019904, Final residual = 7.13057e-07, No Iterations 13
smoothSolver:  Solving for Uy, Initial residual = 0.0524542, Final residual = 4.47374e-07, No Iterations 14
smoothSolver:  Solving for e, Initial residual = 0.00801451, Final residual = 5.26163e-07, No Iterations 12
DICPCG:  Solving for p, Initial residual = 0.22614, Final residual = 9.64348e-07, No Iterations 67
diagonal:  Solving for rho, Initial residual = 0, Final residual = 0, No Iterations 0
time step continuity errors : sum local = 1.8459e-08, global = -9.61522e-12, cumulative = -3.18722e-11
smoothSolver:  Solving for k, Initial residual = 0.0107475, Final residual = 7.97721e-07, No Iterations 12
bounding k, min: -0.000439052 max: 6.60733 average: 1.00404
ExecutionTime = 1.18 s  ClockTime = 2 s

Courant Number mean: 49.8093 max: 54.6582
Time = 0.06

PIMPLE: Iteration 1
diagonal:  Solving for rho, Initial residual = 0, Final residual = 0, No Iterations 0
smoothSolver:  Solving for Ux, Initial residual = 0.0241536, Final residual = 0.000202402, No Iterations 6
smoothSolver:  Solving for Uy, Initial residual = 0.0434907, Final residual = 0.000247265, No Iterations 6
smoothSolver:  Solving for e, Initial residual = 0.00987139, Final residual = 6.03775e-05, No Iterations 6
DICPCG:  Solving for p, Initial residual = 0.323639, Final residual = 7.78857e-07, No Iterations 68
diagonal:  Solving for rho, Initial residual = 0, Final residual = 0, No Iterations 0
time step continuity errors : sum local = 1.81332e-08, global = -1.63202e-11, cumulative = -4.81924e-11
PIMPLE: Iteration 2
smoothSolver:  Solving for Ux, Initial residual = 0.0242974, Final residual = 0.000199557, No Iterations 6
smoothSolver:  Solving for Uy, Initial residual = 0.0615113, Final residual = 0.000331074, No Iterations 6
smoothSolver:  Solving for e, Initial residual = 0.00808827, Final residual = 5.55995e-05, No Iterations 6
DICPCG:  Solving for p, Initial residual = 0.405405, Final residual = 5.73878e-07, No Iterations 70
diagonal:  Solving for rho, Initial residual = 0, Final residual = 0, No Iterations 0
time step continuity errors : sum local = 1.23218e-08, global = 1.00194e-11, cumulative = -3.8173e-11
PIMPLE: Iteration 3
smoothSolver:  Solving for Ux, Initial residual = 0.0153835, Final residual = 5.64556e-07, No Iterations 13
smoothSolver:  Solving for Uy, Initial residual = 0.0477429, Final residual = 8.43922e-07, No Iterations 13
smoothSolver:  Solving for e, Initial residual = 0.00726304, Final residual = 4.59091e-07, No Iterations 12
DICPCG:  Solving for p, Initial residual = 0.224113, Final residual = 9.13397e-07, No Iterations 67
diagonal:  Solving for rho, Initial residual = 0, Final residual = 0, No Iterations 0
time step continuity errors : sum local = 1.6384e-08, global = -6.8104e-12, cumulative = -4.49834e-11
smoothSolver:  Solving for k, Initial residual = 0.00976093, Final residual = 6.40612e-07, No Iterations 13
bounding k, min: -0.0010416 max: 6.56571 average: 1.00289
ExecutionTime = 1.26 s  ClockTime = 2 s

Courant Number mean: 49.8121 max: 54.5335
Time = 0.065

PIMPLE: Iteration 1
diagonal:  Solving for rho, Initial residual = 0, Final residual = 0, No Iterations 0
smoothSolver:  Solving for Ux, Initial residual = 0.0193935, Final residual = 0.000161854, No Iterations 6
smoothSolver:  Solving for Uy, Initial residual = 0.0400076, Final residual = 0.000225738, No Iterations 6
smoothSolver:  Solving for e, Initial residual = 0.00891221, Final residual = 5.41902e-05, No Iterations 6
DICPCG:  Solving for p, Initial residual = 0.323275, Final residual = 9.77112e-07, No Iterations 69
diagonal:  Solving for rho, Initial residual = 0, Final residual = 0, No Iterations 0
time step continuity errors : sum local = 2.15358e-08, global = -4.26189e-12, cumulative = -4.92453e-11
PIMPLE: Iteration 2
smoothSolver:  Solving for Ux, Initial residual = 0.0209192, Final residual = 0.000169774, No Iterations 6
smoothSolver:  Solving for Uy, Initial residual = 0.0554562, Final residual = 0.000297071, No Iterations 6
smoothSolver:  Solving for e, Initial residual = 0.00717043, Final residual = 4.92733e-05, No Iterations 6
DICPCG:  Solving for p, Initial residual = 0.379391, Final residual = 8.99591e-07, No Iterations 69
diagonal:  Solving for rho, Initial residual = 0, Final residual = 0, No Iterations 0
time step continuity errors : sum local = 1.8381e-08, global = 6.39426e-12, cumulative = -4.2851e-11
PIMPLE: Iteration 3
smoothSolver:  Solving for Ux, Initial residual = 0.0132731, Final residual = 4.65093e-07, No Iterations 13
smoothSolver:  Solving for Uy, Initial residual = 0.0387674, Final residual = 6.73459e-07, No Iterations 13
smoothSolver:  Solving for e, Initial residual = 0.00646288, Final residual = 8.56679e-07, No Iterations 11
DICPCG:  Solving for p, Initial residual = 0.203285, Final residual = 7.0131e-07, No Iterations 67
diagonal:  Solving for rho, Initial residual = 0, Final residual = 0, No Iterations 0
time step continuity errors : sum local = 1.19026e-08, global = -1.01823e-11, cumulative = -5.30333e-11
smoothSolver:  Solving for k, Initial residual = 0.00916584, Final residual = 9.54142e-07, No Iterations 12
bounding k, min: -1.31987e-07 max: 6.51746 average: 0.997913
ExecutionTime = 1.34 s  ClockTime = 2 s

Courant Number mean: 49.8346 max: 54.7463
Time = 0.07

PIMPLE: Iteration 1
diagonal:  Solving for rho, Initial residual = 0, Final residual = 0, No Iterations 0
smoothSolver:  Solving for Ux, Initial residual = 0.0153592, Final residual = 0.000126927, No Iterations 6
smoothSolver:  Solving for Uy, Initial residual = 0.0356928, Final residual = 0.000198763, No Iterations 6
smoothSolver:  Solving for e, Initial residual = 0.00786966, Final residual = 4.73398e-05, No Iterations 6
DICPCG:  Solving for p, Initial residual = 0.314761, Final residual = 5.59719e-07, No Iterations 70
diagonal:  Solving for rho, Initial residual = 0, Final residual = 0, No Iterations 0
time step continuity errors : sum local = 1.15318e-08, global = 3.41805e-13, cumulative = -5.26915e-11
PIMPLE: Iteration 2
smoothSolver:  Solving for Ux, Initial residual = 0.0164008, Final residual = 0.000132606, No Iterations 6
smoothSolver:  Solving for Uy, Initial residual = 0.0471368, Final residual = 0.000259558, No Iterations 6
smoothSolver:  Solving for e, Initial residual = 0.00640275, Final residual = 4.27464e-05, No Iterations 6
DICPCG:  Solving for p, Initial residual = 0.351958, Final residual = 8.618e-07, No Iterations 68
diagonal:  Solving for rho, Initial residual = 0, Final residual = 0, No Iterations 0
time step continuity errors : sum local = 1.65611e-08, global = -4.90539e-12, cumulative = -5.75969e-11
PIMPLE: Iteration 3
smoothSolver:  Solving for Ux, Initial residual = 0.0112172, Final residual = 8.33292e-07, No Iterations 12
smoothSolver:  Solving for Uy, Initial residual = 0.0331273, Final residual = 5.6644e-07, No Iterations 13
smoothSolver:  Solving for e, Initial residual = 0.00571881, Final residual = 7.17946e-07, No Iterations 11
DICPCG:  Solving for p, Initial residual = 0.186908, Final residual = 8.80924e-07, No Iterations 66
diagonal:  Solving for rho, Initial residual = 0, Final residual = 0, No Iterations 0
time step continuity errors : sum local = 1.44416e-08, global = 1.60717e-11, cumulative = -4.15253e-11
smoothSolver:  Solving for k, Initial residual = 0.0092809, Final residual = 7.5335e-07, No Iterations 12
bounding k, min: -0.000520563 max: 6.47437 average: 0.986197
ExecutionTime = 1.43 s  ClockTime = 2 s

Courant Number mean: 49.8555 max: 55.0583
Time = 0.075

PIMPLE: Iteration 1
diagonal:  Solving for rho, Initial residual = 0, Final residual = 0, No Iterations 0
smoothSolver:  Solving for Ux, Initial residual = 0.0132313, Final residual = 0.000107527, No Iterations 6
smoothSolver:  Solving for Uy, Initial residual = 0.0289184, Final residual = 0.000161975, No Iterations 6
smoothSolver:  Solving for e, Initial residual = 0.00695069, Final residual = 4.06129e-05, No Iterations 6
DICPCG:  Solving for p, Initial residual = 0.294139, Final residual = 7.14657e-07, No Iterations 70
diagonal:  Solving for rho, Initial residual = 0, Final residual = 0, No Iterations 0
time step continuity errors : sum local = 1.40486e-08, global = 3.51174e-12, cumulative = -3.80135e-11
PIMPLE: Iteration 2
smoothSolver:  Solving for Ux, Initial residual = 0.0135571, Final residual = 0.00010858, No Iterations 6
smoothSolver:  Solving for Uy, Initial residual = 0.0421005, Final residual = 0.000234385, No Iterations 6
smoothSolver:  Solving for e, Initial residual = 0.00565201, Final residual = 3.66944e-05, No Iterations 6
DICPCG:  Solving for p, Initial residual = 0.349653, Final residual = 6.78678e-07, No Iterations 71
diagonal:  Solving for rho, Initial residual = 0, Final residual = 0, No Iterations 0
time step continuity errors : sum local = 1.23125e-08, global = -4.58857e-12, cumulative = -4.26021e-11
PIMPLE: Iteration 3
smoothSolver:  Solving for Ux, Initial residual = 0.00922439, Final residual = 6.83746e-07, No Iterations 12
smoothSolver:  Solving for Uy, Initial residual = 0.0297139, Final residual = 4.9425e-07, No Iterations 13
smoothSolver:  Solving for e, Initial residual = 0.00510767, Final residual = 5.9902e-07, No Iterations 11
DICPCG:  Solving for p, Initial residual = 0.182075, Final residual = 6.87115e-07, No Iterations 68
diagonal:  Solving for rho, Initial residual = 0, Final residual = 0, No Iterations 0
time step continuity errors : sum local = 1.08292e-08, global = 1.92552e-12, cumulative = -4.06766e-11
smoothSolver:  Solving for k, Initial residual = 0.00834369, Final residual = 9.16729e-07, No Iterations 12
bounding k, min: -0.00101479 max: 6.38426 average: 0.976305
ExecutionTime = 1.51 s  ClockTime = 2 s

Courant Number mean: 49.8607 max: 55.5169
Time = 0.08

PIMPLE: Iteration 1
diagonal:  Solving for rho, Initial residual = 0, Final residual = 0, No Iterations 0
smoothSolver:  Solving for Ux, Initial residual = 0.0112239, Final residual = 9.00065e-05, No Iterations 6
smoothSolver:  Solving for Uy, Initial residual = 0.0259882, Final residual = 0.0001407, No Iterations 6
smoothSolver:  Solving for e, Initial residual = 0.00616713, Final residual = 3.48641e-05, No Iterations 6
DICPCG:  Solving for p, Initial residual = 0.284692, Final residual = 9.59966e-07, No Iterations 70
diagonal:  Solving for rho, Initial residual = 0, Final residual = 0, No Iterations 0
time step continuity errors : sum local = 1.81075e-08, global = -9.65532e-13, cumulative = -4.16421e-11
PIMPLE: Iteration 2
smoothSolver:  Solving for Ux, Initial residual = 0.0119915, Final residual = 9.48305e-05, No Iterations 6
smoothSolver:  Solving for Uy, Initial residual = 0.0371167, Final residual = 0.000207393, No Iterations 6
smoothSolver:  Solving for e, Initial residual = 0.00496847, Final residual = 3.13968e-05, No Iterations 6
DICPCG:  Solving for p, Initial residual = 0.320089, Final residual = 9.24645e-07, No Iterations 70
diagonal:  Solving for rho, Initial residual = 0, Final residual = 0, No Iterations 0
time step continuity errors : sum local = 1.61981e-08, global = -2.66796e-13, cumulative = -4.19089e-11
PIMPLE: Iteration 3
smoothSolver:  Solving for Ux, Initial residual = 0.00820842, Final residual = 5.85507e-07, No Iterations 12
smoothSolver:  Solving for Uy, Initial residual = 0.0243616, Final residual = 9.87254e-07, No Iterations 12
smoothSolver:  Solving for e, Initial residual = 0.00449344, Final residual = 4.92972e-07, No Iterations 11
DICPCG:  Solving for p, Initial residual = 0.167511, Final residual = 5.6195e-07, No Iterations 67
diagonal:  Solving for rho, Initial residual = 0, Final residual = 0, No Iterations 0
time step continuity errors : sum local = 8.49654e-09, global = 2.20809e-12, cumulative = -3.97008e-11
smoothSolver:  Solving for k, Initial residual = 0.00727141, Final residual = 5.89096e-07, No Iterations 12
bounding k, min: 0 max: 6.28469 average: 0.964072
ExecutionTime = 1.6 s  ClockTime = 2 s

Courant Number mean: 49.8768 max: 55.8825
Time = 0.085

PIMPLE: Iteration 1
diagonal:  Solving for rho, Initial residual = 0, Final residual = 0, No Iterations 0
smoothSolver:  Solving for Ux, Initial residual = 0.00944116, Final residual = 7.56618e-05, No Iterations 6
smoothSolver:  Solving for Uy, Initial residual = 0.0227874, Final residual = 0.00012002, No Iterations 6
smoothSolver:  Solving for e, Initial residual = 0.00541083, Final residual = 2.98761e-05, No Iterations 6
DICPCG:  Solving for p, Initial residual = 0.271324, Final residual = 8.91036e-07, No Iterations 70
diagonal:  Solving for rho, Initial residual = 0, Final residual = 0, No Iterations 0
time step continuity errors : sum local = 1.59813e-08, global = -7.87806e-12, cumulative = -4.75789e-11
PIMPLE: Iteration 2
smoothSolver:  Solving for Ux, Initial residual = 0.00998358, Final residual = 7.81158e-05, No Iterations 6
smoothSolver:  Solving for Uy, Initial residual = 0.0315277, Final residual = 0.000177052, No Iterations 6
smoothSolver:  Solving for e, Initial residual = 0.00439509, Final residual = 2.69673e-05, No Iterations 6
DICPCG:  Solving for p, Initial residual = 0.292151, Final residual = 5.85637e-07, No Iterations 70
diagonal:  Solving for rho, Initial residual = 0, Final residual = 0, No Iterations 0
time step continuity errors : sum local = 9.83656e-09, global = -1.2075e-12, cumulative = -4.87864e-11
PIMPLE: Iteration 3
smoothSolver:  Solving for Ux, Initial residual = 0.0071843, Final residual = 5.05059e-07, No Iterations 12
smoothSolver:  Solving for Uy, Initial residual = 0.0222135, Final residual = 9.28331e-07, No Iterations 12
smoothSolver:  Solving for e, Initial residual = 0.00399367, Final residual = 9.18782e-07, No Iterations 10
DICPCG:  Solving for p, Initial residual = 0.154819, Final residual = 9.67108e-07, No Iterations 66
diagonal:  Solving for rho, Initial residual = 0, Final residual = 0, No Iterations 0
time step continuity errors : sum local = 1.42746e-08, global = -1.1965e-12, cumulative = -4.99829e-11
smoothSolver:  Solving for k, Initial residual = 0.0059905, Final residual = 7.76494e-07, No Iterations 12
bounding k, min: -0.000262199 max: 6.1865 average: 0.956151
ExecutionTime = 1.68 s  ClockTime = 2 s

Courant Number mean: 49.889 max: 56.1877
Time = 0.09

PIMPLE: Iteration 1
diagonal:  Solving for rho, Initial residual = 0, Final residual = 0, No Iterations 0
smoothSolver:  Solving for Ux, Initial residual = 0.00833104, Final residual = 6.69116e-05, No Iterations 6
smoothSolver:  Solving for Uy, Initial residual = 0.0194847, Final residual = 0.000107564, No Iterations 6
smoothSolver:  Solving for e, Initial residual = 0.00481025, Final residual = 2.56676e-05, No Iterations 6
DICPCG:  Solving for p, Initial residual = 0.249801, Final residual = 8.61711e-07, No Iterations 70
diagonal:  Solving for rho, Initial residual = 0, Final residual = 0, No Iterations 0
time step continuity errors : sum local = 1.47137e-08, global = -1.15347e-11, cumulative = -6.15176e-11
PIMPLE: Iteration 2
smoothSolver:  Solving for Ux, Initial residual = 0.00873084, Final residual = 6.87738e-05, No Iterations 6
smoothSolver:  Solving for Uy, Initial residual = 0.0273682, Final residual = 0.000150585, No Iterations 6
smoothSolver:  Solving for e, Initial residual = 0.00395246, Final residual = 2.32988e-05, No Iterations 6
DICPCG:  Solving for p, Initial residual = 0.269474, Final residual = 9.77387e-07, No Iterations 69
diagonal:  Solving for rho, Initial residual = 0, Final residual = 0, No Iterations 0
time step continuity errors : sum local = 1.55918e-08, global = 4.55697e-12, cumulative = -5.69606e-11
PIMPLE: Iteration 3
smoothSolver:  Solving for Ux, Initial residual = 0.00645905, Final residual = 9.92561e-07, No Iterations 11
smoothSolver:  Solving for Uy, Initial residual = 0.0189, Final residual = 8.78564e-07, No Iterations 12
smoothSolver:  Solving for e, Initial residual = 0.00356945, Final residual = 7.77558e-07, No Iterations 10
DICPCG:  Solving for p, Initial residual = 0.145223, Final residual = 8.6972e-07, No Iterations 65
diagonal:  Solving for rho, Initial residual = 0, Final residual = 0, No Iterations 0
time step continuity errors : sum local = 1.24582e-08, global = -9.45964e-12, cumulative = -6.64203e-11
smoothSolver:  Solving for k, Initial residual = 0.00538547, Final residual = 7.46458e-07, No Iterations 11
bounding k, min: 0 max: 6.1904 average: 0.948772
ExecutionTime = 1.76 s  ClockTime = 2 s

Courant Number mean: 49.9065 max: 56.4511
Time = 0.095

PIMPLE: Iteration 1
diagonal:  Solving for rho, Initial residual = 0, Final residual = 0, No Iterations 0
smoothSolver:  Solving for Ux, Initial residual = 0.00745317, Final residual = 5.96479e-05, No Iterations 6
smoothSolver:  Solving for Uy, Initial residual = 0.0167016, Final residual = 9.69457e-05, No Iterations 6
smoothSolver:  Solving for e, Initial residual = 0.00428436, Final residual = 2.17148e-05, No Iterations 6
DICPCG:  Solving for p, Initial residual = 0.229602, Final residual = 7.86513e-07, No Iterations 70
diagonal:  Solving for rho, Initial residual = 0, Final residual = 0, No Iterations 0
time step continuity errors : sum local = 1.28219e-08, global = -1.38633e-11, cumulative = -8.02836e-11
PIMPLE: Iteration 2
smoothSolver:  Solving for Ux, Initial residual = 0.00761125, Final residual = 6.03631e-05, No Iterations 6
smoothSolver:  Solving for Uy, Initial residual = 0.0239611, Final residual = 0.000127714, No Iterations 6
smoothSolver:  Solving for e, Initial residual = 0.00353435, Final residual = 1.98861e-05, No Iterations 6
DICPCG:  Solving for p, Initial residual = 0.252861, Final residual = 8.22981e-07, No Iterations 69
diagonal:  Solving for rho, Initial residual = 0, Final residual = 0, No Iterations 0
time step continuity errors : sum local = 1.25196e-08, global = 8.89558e-12, cumulative = -7.1388e-11
PIMPLE: Iteration 3
smoothSolver:  Solving for Ux, Initial residual = 0.00589321, Final residual = 8.7826e-07, No Iterations 11
smoothSolver:  Solving for Uy, Initial residual = 0.0160486, Final residual = 8.12704e-07, No Iterations 12
smoothSolver:  Solving for e, Initial residual = 0.00317379, Final residual = 6.55833e-07, No Iterations 10
DICPCG:  Solving for p, Initial residual = 0.131182, Final residual = 9.92573e-07, No Iterations 66
diagonal:  Solving for rho, Initial residual = 0, Final residual = 0, No Iterations 0
time step continuity errors : sum local = 1.38642e-08, global = 1.80104e-12, cumulative = -6.9587e-11
smoothSolver:  Solving for k, Initial residual = 0.00473951, Final residual = 9.6806e-07, No Iterations 11
bounding k, min: 0 max: 6.19122 average: 0.941582
ExecutionTime = 1.85 s  ClockTime = 2 s

Courant Number mean: 49.9279 max: 56.6906
Time = 0.1

PIMPLE: Iteration 1
diagonal:  Solving for rho, Initial residual = 0, Final residual = 0, No Iterations 0
smoothSolver:  Solving for Ux, Initial residual = 0.00674819, Final residual = 5.35133e-05, No Iterations 6
smoothSolver:  Solving for Uy, Initial residual = 0.0144908, Final residual = 8.96304e-05, No Iterations 6
smoothSolver:  Solving for e, Initial residual = 0.0038007, Final residual = 1.84932e-05, No Iterations 6
DICPCG:  Solving for p, Initial residual = 0.218761, Final residual = 8.29158e-07, No Iterations 69
diagonal:  Solving for rho, Initial residual = 0, Final residual = 0, No Iterations 0
time step continuity errors : sum local = 1.29665e-08, global = -7.47863e-12, cumulative = -7.70656e-11
PIMPLE: Iteration 2
smoothSolver:  Solving for Ux, Initial residual = 0.00667657, Final residual = 5.31279e-05, No Iterations 6
smoothSolver:  Solving for Uy, Initial residual = 0.0209906, Final residual = 0.00010829, No Iterations 6
smoothSolver:  Solving for e, Initial residual = 0.00308562, Final residual = 1.70271e-05, No Iterations 6
DICPCG:  Solving for p, Initial residual = 0.252849, Final residual = 8.39451e-07, No Iterations 69
diagonal:  Solving for rho, Initial residual = 0, Final residual = 0, No Iterations 0
time step continuity errors : sum local = 1.21657e-08, global = 2.02517e-11, cumulative = -5.68139e-11
PIMPLE: Iteration 3
smoothSolver:  Solving for Ux, Initial residual = 0.00534284, Final residual = 7.80242e-07, No Iterations 11
smoothSolver:  Solving for Uy, Initial residual = 0.015391, Final residual = 7.50223e-07, No Iterations 12
smoothSolver:  Solving for e, Initial residual = 0.00279333, Final residual = 5.72066e-07, No Iterations 10
DICPCG:  Solving for p, Initial residual = 0.130193, Final residual = 5.40786e-07, No Iterations 69
diagonal:  Solving for rho, Initial residual = 0, Final residual = 0, No Iterations 0
time step continuity errors : sum local = 7.40486e-09, global = -4.77414e-12, cumulative = -6.15881e-11
smoothSolver:  Solving for k, Initial residual = 0.00433037, Final residual = 6.94337e-07, No Iterations 13
bounding k, min: -0.000796524 max: 6.19244 average: 0.935988
ExecutionTime = 2.06 s  ClockTime = 3 s

Courant Number mean: 49.9474 max: 56.9362
Time = 0.105

PIMPLE: Iteration 1
diagonal:  Solving for rho, Initial residual = 0, Final residual = 0, No Iterations 0
smoothSolver:  Solving for Ux, Initial residual = 0.00622627, Final residual = 4.82017e-05, No Iterations 6
smoothSolver:  Solving for Uy, Initial residual = 0.0139569, Final residual = 8.54201e-05, No Iterations 6
smoothSolver:  Solving for e, Initial residual = 0.00334472, Final residual = 1.59694e-05, No Iterations 6
DICPCG:  Solving for p, Initial residual = 0.218392, Final residual = 9.58382e-07, No Iterations 68
diagonal:  Solving for rho, Initial residual = 0, Final residual = 0, No Iterations 0
time step continuity errors : sum local = 1.47339e-08, global = -9.18219e-12, cumulative = -7.07702e-11
PIMPLE: Iteration 2
smoothSolver:  Solving for Ux, Initial residual = 0.00617647, Final residual = 4.87218e-05, No Iterations 6
smoothSolver:  Solving for Uy, Initial residual = 0.0188603, Final residual = 9.42875e-05, No Iterations 6
smoothSolver:  Solving for e, Initial residual = 0.00265434, Final residual = 1.48654e-05, No Iterations 6
DICPCG:  Solving for p, Initial residual = 0.259954, Final residual = 8.45492e-07, No Iterations 71
diagonal:  Solving for rho, Initial residual = 0, Final residual = 0, No Iterations 0
time step continuity errors : sum local = 1.20576e-08, global = 9.31272e-12, cumulative = -6.14575e-11
PIMPLE: Iteration 3
smoothSolver:  Solving for Ux, Initial residual = 0.00480793, Final residual = 7.07227e-07, No Iterations 11
smoothSolver:  Solving for Uy, Initial residual = 0.0180564, Final residual = 7.09927e-07, No Iterations 12
smoothSolver:  Solving for e, Initial residual = 0.00247928, Final residual = 4.9732e-07, No Iterations 10
DICPCG:  Solving for p, Initial residual = 0.140438, Final residual = 6.66571e-07, No Iterations 70
diagonal:  Solving for rho, Initial residual = 0, Final residual = 0, No Iterations 0
time step continuity errors : sum local = 9.01089e-09, global = -7.8495e-12, cumulative = -6.9307e-11
smoothSolver:  Solving for k, Initial residual = 0.00398237, Final residual = 7.29803e-07, No Iterations 11
bounding k, min: -0.000647724 max: 6.19314 average: 0.933229
ExecutionTime = 2.14 s  ClockTime = 3 s

Courant Number mean: 49.9545 max: 57.1811
Time = 0.11

PIMPLE: Iteration 1
diagonal:  Solving for rho, Initial residual = 0, Final residual = 0, No Iterations 0
smoothSolver:  Solving for Ux, Initial residual = 0.00555619, Final residual = 4.23585e-05, No Iterations 6
smoothSolver:  Solving for Uy, Initial residual = 0.0139469, Final residual = 8.65134e-05, No Iterations 6
smoothSolver:  Solving for e, Initial residual = 0.00295878, Final residual = 1.43194e-05, No Iterations 6
DICPCG:  Solving for p, Initial residual = 0.217941, Final residual = 8.06104e-07, No Iterations 71
diagonal:  Solving for rho, Initial residual = 0, Final residual = 0, No Iterations 0
time step continuity errors : sum local = 1.22658e-08, global = -1.16681e-11, cumulative = -8.09752e-11
PIMPLE: Iteration 2
smoothSolver:  Solving for Ux, Initial residual = 0.00632347, Final residual = 4.90403e-05, No Iterations 6
smoothSolver:  Solving for Uy, Initial residual = 0.0176818, Final residual = 8.65465e-05, No Iterations 6
smoothSolver:  Solving for e, Initial residual = 0.00228231, Final residual = 1.30647e-05, No Iterations 6
DICPCG:  Solving for p, Initial residual = 0.243987, Final residual = 7.4839e-07, No Iterations 72
diagonal:  Solving for rho, Initial residual = 0, Final residual = 0, No Iterations 0
time step continuity errors : sum local = 1.06928e-08, global = 7.19323e-12, cumulative = -7.37819e-11
PIMPLE: Iteration 3
smoothSolver:  Solving for Ux, Initial residual = 0.00444811, Final residual = 6.34554e-07, No Iterations 11
smoothSolver:  Solving for Uy, Initial residual = 0.0183287, Final residual = 6.50204e-07, No Iterations 12
smoothSolver:  Solving for e, Initial residual = 0.00214816, Final residual = 9.79162e-07, No Iterations 9
DICPCG:  Solving for p, Initial residual = 0.129333, Final residual = 8.31359e-07, No Iterations 67
diagonal:  Solving for rho, Initial residual = 0, Final residual = 0, No Iterations 0
time step continuity errors : sum local = 1.11287e-08, global = -2.0856e-12, cumulative = -7.58675e-11
smoothSolver:  Solving for k, Initial residual = 0.00338162, Final residual = 6.19428e-07, No Iterations 12
bounding k, min: -0.000436867 max: 6.1929 average: 0.929308
ExecutionTime = 2.22 s  ClockTime = 3 s

Courant Number mean: 49.9663 max: 57.4082
Time = 0.115

PIMPLE: Iteration 1
diagonal:  Solving for rho, Initial residual = 0, Final residual = 0, No Iterations 0
smoothSolver:  Solving for Ux, Initial residual = 0.00477251, Final residual = 3.65223e-05, No Iterations 6
smoothSolver:  Solving for Uy, Initial residual = 0.0162354, Final residual = 9.19439e-05, No Iterations 6
smoothSolver:  Solving for e, Initial residual = 0.00254906, Final residual = 1.25077e-05, No Iterations 6
DICPCG:  Solving for p, Initial residual = 0.216016, Final residual = 7.05801e-07, No Iterations 72
diagonal:  Solving for rho, Initial residual = 0, Final residual = 0, No Iterations 0
time step continuity errors : sum local = 1.0677e-08, global = -7.6612e-12, cumulative = -8.35287e-11
PIMPLE: Iteration 2
smoothSolver:  Solving for Ux, Initial residual = 0.00591338, Final residual = 4.57598e-05, No Iterations 6
smoothSolver:  Solving for Uy, Initial residual = 0.0157812, Final residual = 7.93712e-05, No Iterations 6
smoothSolver:  Solving for e, Initial residual = 0.00198302, Final residual = 1.15158e-05, No Iterations 6
DICPCG:  Solving for p, Initial residual = 0.229152, Final residual = 7.86734e-07, No Iterations 72
diagonal:  Solving for rho, Initial residual = 0, Final residual = 0, No Iterations 0
time step continuity errors : sum local = 1.12161e-08, global = 6.93842e-12, cumulative = -7.65903e-11
PIMPLE: Iteration 3
smoothSolver:  Solving for Ux, Initial residual = 0.00407639, Final residual = 5.65329e-07, No Iterations 11
smoothSolver:  Solving for Uy, Initial residual = 0.0175066, Final residual = 6.04184e-07, No Iterations 12
smoothSolver:  Solving for e, Initial residual = 0.00185672, Final residual = 8.86516e-07, No Iterations 9
DICPCG:  Solving for p, Initial residual = 0.138353, Final residual = 7.54734e-07, No Iterations 69
diagonal:  Solving for rho, Initial residual = 0, Final residual = 0, No Iterations 0
time step continuity errors : sum local = 9.90032e-09, global = 1.42897e-11, cumulative = -6.23007e-11
smoothSolver:  Solving for k, Initial residual = 0.0031087, Final residual = 5.65908e-07, No Iterations 11
bounding k, min: -1.67982e-05 max: 6.19238 average: 0.925052
ExecutionTime = 2.3 s  ClockTime = 3 s

Courant Number mean: 49.977 max: 57.6725
Time = 0.12

PIMPLE: Iteration 1
diagonal:  Solving for rho, Initial residual = 0, Final residual = 0, No Iterations 0
smoothSolver:  Solving for Ux, Initial residual = 0.00419505, Final residual = 3.19668e-05, No Iterations 6
smoothSolver:  Solving for Uy, Initial residual = 0.0174495, Final residual = 9.15087e-05, No Iterations 6
smoothSolver:  Solving for e, Initial residual = 0.00215713, Final residual = 1.09209e-05, No Iterations 6
DICPCG:  Solving for p, Initial residual = 0.209708, Final residual = 7.98116e-07, No Iterations 72
diagonal:  Solving for rho, Initial residual = 0, Final residual = 0, No Iterations 0
time step continuity errors : sum local = 1.17015e-08, global = -8.24776e-12, cumulative = -7.05484e-11
PIMPLE: Iteration 2
smoothSolver:  Solving for Ux, Initial residual = 0.00530378, Final residual = 4.13909e-05, No Iterations 6
smoothSolver:  Solving for Uy, Initial residual = 0.0133948, Final residual = 7.13474e-05, No Iterations 6
smoothSolver:  Solving for e, Initial residual = 0.00173497, Final residual = 1.01644e-05, No Iterations 6
DICPCG:  Solving for p, Initial residual = 0.20917, Final residual = 9.71504e-07, No Iterations 71
diagonal:  Solving for rho, Initial residual = 0, Final residual = 0, No Iterations 0
time step continuity errors : sum local = 1.35441e-08, global = 1.06934e-11, cumulative = -5.9855e-11
PIMPLE: Iteration 3
smoothSolver:  Solving for Ux, Initial residual = 0.00367878, Final residual = 4.93294e-07, No Iterations 11
smoothSolver:  Solving for Uy, Initial residual = 0.0146428, Final residual = 5.58958e-07, No Iterations 12
smoothSolver:  Solving for e, Initial residual = 0.00155648, Final residual = 8.65108e-07, No Iterations 9
DICPCG:  Solving for p, Initial residual = 0.128889, Final residual = 7.96263e-07, No Iterations 70
diagonal:  Solving for rho, Initial residual = 0, Final residual = 0, No Iterations 0
time step continuity errors : sum local = 1.02772e-08, global = 1.35394e-11, cumulative = -4.63156e-11
smoothSolver:  Solving for k, Initial residual = 0.00258786, Final residual = 9.68455e-07, No Iterations 10
bounding k, min: -0.000310823 max: 6.19171 average: 0.922293
ExecutionTime = 2.38 s  ClockTime = 3 s

Courant Number mean: 49.9949 max: 58.0091
Time = 0.125

PIMPLE: Iteration 1
diagonal:  Solving for rho, Initial residual = 0, Final residual = 0, No Iterations 0
smoothSolver:  Solving for Ux, Initial residual = 0.00370978, Final residual = 2.81335e-05, No Iterations 6
smoothSolver:  Solving for Uy, Initial residual = 0.0151039, Final residual = 7.89745e-05, No Iterations 6
smoothSolver:  Solving for e, Initial residual = 0.00182785, Final residual = 1.02817e-05, No Iterations 6
DICPCG:  Solving for p, Initial residual = 0.186044, Final residual = 6.26506e-07, No Iterations 72
diagonal:  Solving for rho, Initial residual = 0, Final residual = 0, No Iterations 0
time step continuity errors : sum local = 8.75939e-09, global = -5.81384e-12, cumulative = -5.21295e-11
PIMPLE: Iteration 2
smoothSolver:  Solving for Ux, Initial residual = 0.00446107, Final residual = 3.4958e-05, No Iterations 6
smoothSolver:  Solving for Uy, Initial residual = 0.0118791, Final residual = 6.80909e-05, No Iterations 6
smoothSolver:  Solving for e, Initial residual = 0.00145878, Final residual = 9.63815e-06, No Iterations 6
DICPCG:  Solving for p, Initial residual = 0.181557, Final residual = 6.61512e-07, No Iterations 70
diagonal:  Solving for rho, Initial residual = 0, Final residual = 0, No Iterations 0
time step continuity errors : sum local = 8.80855e-09, global = 6.62585e-12, cumulative = -4.55036e-11
PIMPLE: Iteration 3
smoothSolver:  Solving for Ux, Initial residual = 0.0033023, Final residual = 9.88861e-07, No Iterations 10
smoothSolver:  Solving for Uy, Initial residual = 0.0113311, Final residual = 5.16202e-07, No Iterations 12
smoothSolver:  Solving for e, Initial residual = 0.0013127, Final residual = 8.71758e-07, No Iterations 9
DICPCG:  Solving for p, Initial residual = 0.115262, Final residual = 8.33482e-07, No Iterations 70
diagonal:  Solving for rho, Initial residual = 0, Final residual = 0, No Iterations 0
time step continuity errors : sum local = 1.04528e-08, global = 1.41716e-11, cumulative = -3.1332e-11
smoothSolver:  Solving for k, Initial residual = 0.00228109, Final residual = 6.86238e-07, No Iterations 11
bounding k, min: -8.87831e-06 max: 6.18982 average: 0.919516
ExecutionTime = 2.46 s  ClockTime = 3 s

Courant Number mean: 50.0099 max: 58.2683
Time = 0.13

PIMPLE: Iteration 1
diagonal:  Solving for rho, Initial residual = 0, Final residual = 0, No Iterations 0
smoothSolver:  Solving for Ux, Initial residual = 0.0032928, Final residual = 2.48596e-05, No Iterations 6
smoothSolver:  Solving for Uy, Initial residual = 0.0116531, Final residual = 6.48038e-05, No Iterations 6
smoothSolver:  Solving for e, Initial residual = 0.00158814, Final residual = 1.0142e-05, No Iterations 6
DICPCG:  Solving for p, Initial residual = 0.158908, Final residual = 6.38449e-07, No Iterations 71
diagonal:  Solving for rho, Initial residual = 0, Final residual = 0, No Iterations 0
time step continuity errors : sum local = 8.41401e-09, global = -7.22789e-12, cumulative = -3.85599e-11
PIMPLE: Iteration 2
smoothSolver:  Solving for Ux, Initial residual = 0.00360598, Final residual = 2.80425e-05, No Iterations 6
smoothSolver:  Solving for Uy, Initial residual = 0.010457, Final residual = 6.18428e-05, No Iterations 6
smoothSolver:  Solving for e, Initial residual = 0.00123797, Final residual = 9.68275e-06, No Iterations 6
DICPCG:  Solving for p, Initial residual = 0.173954, Final residual = 7.67224e-07, No Iterations 69
diagonal:  Solving for rho, Initial residual = 0, Final residual = 0, No Iterations 0
time step continuity errors : sum local = 9.70506e-09, global = 3.76887e-12, cumulative = -3.4791e-11
PIMPLE: Iteration 3
smoothSolver:  Solving for Ux, Initial residual = 0.00300779, Final residual = 8.90949e-07, No Iterations 10
smoothSolver:  Solving for Uy, Initial residual = 0.00979441, Final residual = 4.96597e-07, No Iterations 12
smoothSolver:  Solving for e, Initial residual = 0.0011595, Final residual = 8.41831e-07, No Iterations 9
DICPCG:  Solving for p, Initial residual = 0.0896419, Final residual = 5.29106e-07, No Iterations 67
diagonal:  Solving for rho, Initial residual = 0, Final residual = 0, No Iterations 0
time step continuity errors : sum local = 6.50119e-09, global = -7.08243e-12, cumulative = -4.18735e-11
smoothSolver:  Solving for k, Initial residual = 0.00197878, Final residual = 8.12162e-07, No Iterations 10
bounding k, min: -0.000151007 max: 6.18875 average: 0.917248
ExecutionTime = 2.53 s  ClockTime = 3 s

Courant Number mean: 50.0243 max: 58.4714
Time = 0.135

PIMPLE: Iteration 1
diagonal:  Solving for rho, Initial residual = 0, Final residual = 0, No Iterations 0
smoothSolver:  Solving for Ux, Initial residual = 0.00300423, Final residual = 2.20972e-05, No Iterations 6
smoothSolver:  Solving for Uy, Initial residual = 0.00863548, Final residual = 5.44553e-05, No Iterations 6
smoothSolver:  Solving for e, Initial residual = 0.00140763, Final residual = 9.7755e-06, No Iterations 6
DICPCG:  Solving for p, Initial residual = 0.144052, Final residual = 5.93379e-07, No Iterations 69
diagonal:  Solving for rho, Initial residual = 0, Final residual = 0, No Iterations 0
time step continuity errors : sum local = 7.57054e-09, global = -1.63101e-12, cumulative = -4.35045e-11
PIMPLE: Iteration 2
smoothSolver:  Solving for Ux, Initial residual = 0.00322165, Final residual = 2.49859e-05, No Iterations 6
smoothSolver:  Solving for Uy, Initial residual = 0.0107708, Final residual = 6.20572e-05, No Iterations 6
smoothSolver:  Solving for e, Initial residual = 0.00114936, Final residual = 9.33005e-06, No Iterations 6
DICPCG:  Solving for p, Initial residual = 0.151567, Final residual = 9.76625e-07, No Iterations 69
diagonal:  Solving for rho, Initial residual = 0, Final residual = 0, No Iterations 0
time step continuity errors : sum local = 1.1855e-08, global = 9.35776e-12, cumulative = -3.41467e-11
PIMPLE: Iteration 3
smoothSolver:  Solving for Ux, Initial residual = 0.00278567, Final residual = 8.19297e-07, No Iterations 10
smoothSolver:  Solving for Uy, Initial residual = 0.00852164, Final residual = 4.65837e-07, No Iterations 12
smoothSolver:  Solving for e, Initial residual = 0.00108275, Final residual = 7.5996e-07, No Iterations 9
DICPCG:  Solving for p, Initial residual = 0.0806913, Final residual = 6.66774e-07, No Iterations 68
diagonal:  Solving for rho, Initial residual = 0, Final residual = 0, No Iterations 0
time step continuity errors : sum local = 7.9721e-09, global = -8.60432e-12, cumulative = -4.2751e-11
smoothSolver:  Solving for k, Initial residual = 0.00176732, Final residual = 8.69325e-07, No Iterations 10
bounding k, min: 0 max: 6.18707 average: 0.915545
ExecutionTime = 2.61 s  ClockTime = 3 s

Courant Number mean: 50.0367 max: 58.638
Time = 0.14

PIMPLE: Iteration 1
diagonal:  Solving for rho, Initial residual = 0, Final residual = 0, No Iterations 0
smoothSolver:  Solving for Ux, Initial residual = 0.00275603, Final residual = 1.99911e-05, No Iterations 6
smoothSolver:  Solving for Uy, Initial residual = 0.00827922, Final residual = 5.2732e-05, No Iterations 6
smoothSolver:  Solving for e, Initial residual = 0.0012784, Final residual = 8.98303e-06, No Iterations 6
DICPCG:  Solving for p, Initial residual = 0.123903, Final residual = 7.50094e-07, No Iterations 68
diagonal:  Solving for rho, Initial residual = 0, Final residual = 0, No Iterations 0
time step continuity errors : sum local = 9.29579e-09, global = -1.59329e-11, cumulative = -5.8684e-11
PIMPLE: Iteration 2
smoothSolver:  Solving for Ux, Initial residual = 0.00281507, Final residual = 2.1484e-05, No Iterations 6
smoothSolver:  Solving for Uy, Initial residual = 0.0101279, Final residual = 5.58605e-05, No Iterations 6
smoothSolver:  Solving for e, Initial residual = 0.00110607, Final residual = 8.58513e-06, No Iterations 6
DICPCG:  Solving for p, Initial residual = 0.121716, Final residual = 9.45822e-07, No Iterations 68
diagonal:  Solving for rho, Initial residual = 0, Final residual = 0, No Iterations 0
time step continuity errors : sum local = 1.1089e-08, global = 9.57064e-12, cumulative = -4.91133e-11
PIMPLE: Iteration 3
smoothSolver:  Solving for Ux, Initial residual = 0.00264347, Final residual = 7.74758e-07, No Iterations 10
smoothSolver:  Solving for Uy, Initial residual = 0.00822599, Final residual = 4.40795e-07, No Iterations 12
smoothSolver:  Solving for e, Initial residual = 0.00102486, Final residual = 6.6999e-07, No Iterations 9
DICPCG:  Solving for p, Initial residual = 0.0829748, Final residual = 8.3792e-07, No Iterations 69
diagonal:  Solving for rho, Initial residual = 0, Final residual = 0, No Iterations 0
time step continuity errors : sum local = 9.84795e-09, global = -8.21832e-12, cumulative = -5.73316e-11
smoothSolver:  Solving for k, Initial residual = 0.00146893, Final residual = 6.03613e-07, No Iterations 10
bounding k, min: -0.000270101 max: 6.18618 average: 0.91332
ExecutionTime = 2.69 s  ClockTime = 3 s

Courant Number mean: 50.0451 max: 58.8234
Time = 0.145

PIMPLE: Iteration 1
diagonal:  Solving for rho, Initial residual = 0, Final residual = 0, No Iterations 0
smoothSolver:  Solving for Ux, Initial residual = 0.00259134, Final residual = 1.84138e-05, No Iterations 6
smoothSolver:  Solving for Uy, Initial residual = 0.00806462, Final residual = 4.89541e-05, No Iterations 6
smoothSolver:  Solving for e, Initial residual = 0.001228, Final residual = 8.01589e-06, No Iterations 6
DICPCG:  Solving for p, Initial residual = 0.0968023, Final residual = 7.80823e-07, No Iterations 68
diagonal:  Solving for rho, Initial residual = 0, Final residual = 0, No Iterations 0
time step continuity errors : sum local = 9.60878e-09, global = -9.09201e-12, cumulative = -6.64236e-11
PIMPLE: Iteration 2
smoothSolver:  Solving for Ux, Initial residual = 0.00291255, Final residual = 2.24097e-05, No Iterations 6
smoothSolver:  Solving for Uy, Initial residual = 0.0100059, Final residual = 5.12819e-05, No Iterations 6
smoothSolver:  Solving for e, Initial residual = 0.00103887, Final residual = 7.60823e-06, No Iterations 6
DICPCG:  Solving for p, Initial residual = 0.11141, Final residual = 7.55847e-07, No Iterations 69
diagonal:  Solving for rho, Initial residual = 0, Final residual = 0, No Iterations 0
time step continuity errors : sum local = 8.78935e-09, global = 6.57984e-12, cumulative = -5.98438e-11
PIMPLE: Iteration 3
smoothSolver:  Solving for Ux, Initial residual = 0.00244172, Final residual = 6.87182e-07, No Iterations 10
smoothSolver:  Solving for Uy, Initial residual = 0.00765328, Final residual = 8.984e-07, No Iterations 11
smoothSolver:  Solving for e, Initial residual = 0.000963992, Final residual = 5.55778e-07, No Iterations 9
DICPCG:  Solving for p, Initial residual = 0.0701945, Final residual = 6.51061e-07, No Iterations 68
diagonal:  Solving for rho, Initial residual = 0, Final residual = 0, No Iterations 0
time step continuity errors : sum local = 7.51479e-09, global = -4.80513e-12, cumulative = -6.46489e-11
smoothSolver:  Solving for k, Initial residual = 0.00123539, Final residual = 9.99004e-07, No Iterations 9
bounding k, min: -0.000502266 max: 6.18655 average: 0.912706
ExecutionTime = 2.76 s  ClockTime = 3 s

Courant Number mean: 50.0621 max: 59.011
Time = 0.15

PIMPLE: Iteration 1
diagonal:  Solving for rho, Initial residual = 0, Final residual = 0, No Iterations 0
smoothSolver:  Solving for Ux, Initial residual = 0.0022752, Final residual = 1.55168e-05, No Iterations 6
smoothSolver:  Solving for Uy, Initial residual = 0.007183, Final residual = 4.49999e-05, No Iterations 6
smoothSolver:  Solving for e, Initial residual = 0.0011761, Final residual = 6.88514e-06, No Iterations 6
DICPCG:  Solving for p, Initial residual = 0.0960936, Final residual = 6.09579e-07, No Iterations 69
diagonal:  Solving for rho, Initial residual = 0, Final residual = 0, No Iterations 0
time step continuity errors : sum local = 7.46581e-09, global = -5.52235e-12, cumulative = -7.01713e-11
PIMPLE: Iteration 2
smoothSolver:  Solving for Ux, Initial residual = 0.00261474, Final residual = 1.96304e-05, No Iterations 6
smoothSolver:  Solving for Uy, Initial residual = 0.00920375, Final residual = 4.43563e-05, No Iterations 6
smoothSolver:  Solving for e, Initial residual = 0.000982434, Final residual = 6.54732e-06, No Iterations 6
DICPCG:  Solving for p, Initial residual = 0.119696, Final residual = 7.17476e-07, No Iterations 71
diagonal:  Solving for rho, Initial residual = 0, Final residual = 0, No Iterations 0
time step continuity errors : sum local = 8.36652e-09, global = 5.59902e-12, cumulative = -6.45723e-11
PIMPLE: Iteration 3
smoothSolver:  Solving for Ux, Initial residual = 0.00239731, Final residual = 6.85348e-07, No Iterations 10
smoothSolver:  Solving for Uy, Initial residual = 0.00815446, Final residual = 8.33877e-07, No Iterations 11
smoothSolver:  Solving for e, Initial residual = 0.000950045, Final residual = 4.63493e-07, No Iterations 9
DICPCG:  Solving for p, Initial residual = 0.0729854, Final residual = 5.2599e-07, No Iterations 69
diagonal:  Solving for rho, Initial residual = 0, Final residual = 0, No Iterations 0
time step continuity errors : sum local = 6.04385e-09, global = -3.2508e-12, cumulative = -6.78231e-11
smoothSolver:  Solving for k, Initial residual = 0.00117209, Final residual = 7.97145e-07, No Iterations 9
bounding k, min: -0.000271873 max: 6.18482 average: 0.912129
ExecutionTime = 2.85 s  ClockTime = 3 s

Courant Number mean: 50.0699 max: 59.1753
Time = 0.155

PIMPLE: Iteration 1
diagonal:  Solving for rho, Initial residual = 0, Final residual = 0, No Iterations 0
smoothSolver:  Solving for Ux, Initial residual = 0.00198385, Final residual = 1.28725e-05, No Iterations 6
smoothSolver:  Solving for Uy, Initial residual = 0.00623657, Final residual = 4.28493e-05, No Iterations 6
smoothSolver:  Solving for e, Initial residual = 0.00112534, Final residual = 5.94802e-06, No Iterations 6
DICPCG:  Solving for p, Initial residual = 0.101869, Final residual = 6.58097e-07, No Iterations 71
diagonal:  Solving for rho, Initial residual = 0, Final residual = 0, No Iterations 0
time step continuity errors : sum local = 8.05675e-09, global = -6.22475e-12, cumulative = -7.40478e-11
PIMPLE: Iteration 2
smoothSolver:  Solving for Ux, Initial residual = 0.00285725, Final residual = 2.16905e-05, No Iterations 6
smoothSolver:  Solving for Uy, Initial residual = 0.00833372, Final residual = 3.83716e-05, No Iterations 6
smoothSolver:  Solving for e, Initial residual = 0.000905932, Final residual = 5.57377e-06, No Iterations 6
DICPCG:  Solving for p, Initial residual = 0.116341, Final residual = 6.99002e-07, No Iterations 71
diagonal:  Solving for rho, Initial residual = 0, Final residual = 0, No Iterations 0
time step continuity errors : sum local = 8.20754e-09, global = 5.5994e-12, cumulative = -6.84484e-11
PIMPLE: Iteration 3
smoothSolver:  Solving for Ux, Initial residual = 0.00209419, Final residual = 5.60796e-07, No Iterations 10
smoothSolver:  Solving for Uy, Initial residual = 0.00734553, Final residual = 6.85149e-07, No Iterations 11
smoothSolver:  Solving for e, Initial residual = 0.00086268, Final residual = 8.76007e-07, No Iterations 8
DICPCG:  Solving for p, Initial residual = 0.0640245, Final residual = 6.22495e-07, No Iterations 67
diagonal:  Solving for rho, Initial residual = 0, Final residual = 0, No Iterations 0
time step continuity errors : sum local = 7.07437e-09, global = -8.75506e-12, cumulative = -7.72035e-11
smoothSolver:  Solving for k, Initial residual = 0.00100099, Final residual = 8.32826e-07, No Iterations 9
bounding k, min: -0.000427645 max: 6.18475 average: 0.911559
ExecutionTime = 2.92 s  ClockTime = 4 s

Courant Number mean: 50.0919 max: 59.3479
Time = 0.16

PIMPLE: Iteration 1
diagonal:  Solving for rho, Initial residual = 0, Final residual = 0, No Iterations 0
smoothSolver:  Solving for Ux, Initial residual = 0.00172355, Final residual = 1.07273e-05, No Iterations 6
smoothSolver:  Solving for Uy, Initial residual = 0.00575157, Final residual = 4.04271e-05, No Iterations 6
smoothSolver:  Solving for e, Initial residual = 0.00101507, Final residual = 4.80279e-06, No Iterations 6
DICPCG:  Solving for p, Initial residual = 0.105321, Final residual = 6.92154e-07, No Iterations 71
diagonal:  Solving for rho, Initial residual = 0, Final residual = 0, No Iterations 0
time step continuity errors : sum local = 8.45248e-09, global = -7.05675e-12, cumulative = -8.42602e-11
PIMPLE: Iteration 2
smoothSolver:  Solving for Ux, Initial residual = 0.00239821, Final residual = 1.76959e-05, No Iterations 6
smoothSolver:  Solving for Uy, Initial residual = 0.00733443, Final residual = 3.36601e-05, No Iterations 6
smoothSolver:  Solving for e, Initial residual = 0.000796738, Final residual = 4.55149e-06, No Iterations 6
DICPCG:  Solving for p, Initial residual = 0.119232, Final residual = 9.95536e-07, No Iterations 71
diagonal:  Solving for rho, Initial residual = 0, Final residual = 0, No Iterations 0
time step continuity errors : sum local = 1.17367e-08, global = 9.28149e-12, cumulative = -7.49787e-11
PIMPLE: Iteration 3
smoothSolver:  Solving for Ux, Initial residual = 0.0021091, Final residual = 5.95309e-07, No Iterations 10
smoothSolver:  Solving for Uy, Initial residual = 0.00835333, Final residual = 6.11552e-07, No Iterations 11
smoothSolver:  Solving for e, Initial residual = 0.000804497, Final residual = 7.13255e-07, No Iterations 8
DICPCG:  Solving for p, Initial residual = 0.0621888, Final residual = 8.31385e-07, No Iterations 67
diagonal:  Solving for rho, Initial residual = 0, Final residual = 0, No Iterations 0
time step continuity errors : sum local = 9.53591e-09, global = -6.76071e-12, cumulative = -8.17394e-11
smoothSolver:  Solving for k, Initial residual = 0.000945824, Final residual = 7.11665e-07, No Iterations 9
bounding k, min: -0.000115374 max: 6.18374 average: 0.910842
ExecutionTime = 3 s  ClockTime = 4 s

Courant Number mean: 50.0984 max: 59.614
Time = 0.165

PIMPLE: Iteration 1
diagonal:  Solving for rho, Initial residual = 0, Final residual = 0, No Iterations 0
smoothSolver:  Solving for Ux, Initial residual = 0.00151626, Final residual = 9.44485e-06, No Iterations 6
smoothSolver:  Solving for Uy, Initial residual = 0.00670421, Final residual = 4.22395e-05, No Iterations 6
smoothSolver:  Solving for e, Initial residual = 0.000930017, Final residual = 4.03338e-06, No Iterations 6
DICPCG:  Solving for p, Initial residual = 0.1099, Final residual = 9.67606e-07, No Iterations 71
diagonal:  Solving for rho, Initial residual = 0, Final residual = 0, No Iterations 0
time step continuity errors : sum local = 1.18415e-08, global = -1.06196e-11, cumulative = -9.2359e-11
PIMPLE: Iteration 2
smoothSolver:  Solving for Ux, Initial residual = 0.00261668, Final residual = 1.98095e-05, No Iterations 6
smoothSolver:  Solving for Uy, Initial residual = 0.00616925, Final residual = 2.81676e-05, No Iterations 6
smoothSolver:  Solving for e, Initial residual = 0.000731788, Final residual = 3.68817e-06, No Iterations 6
DICPCG:  Solving for p, Initial residual = 0.108074, Final residual = 8.01456e-07, No Iterations 71
diagonal:  Solving for rho, Initial residual = 0, Final residual = 0, No Iterations 0
time step continuity errors : sum local = 9.52736e-09, global = 7.26114e-12, cumulative = -8.50979e-11
PIMPLE: Iteration 3
smoothSolver:  Solving for Ux, Initial residual = 0.00165821, Final residual = 9.82771e-07, No Iterations 9
smoothSolver:  Solving for Uy, Initial residual = 0.00678834, Final residual = 4.5417e-07, No Iterations 11
smoothSolver:  Solving for e, Initial residual = 0.000679331, Final residual = 5.35137e-07, No Iterations 8
DICPCG:  Solving for p, Initial residual = 0.0625046, Final residual = 5.03302e-07, No Iterations 67
diagonal:  Solving for rho, Initial residual = 0, Final residual = 0, No Iterations 0
time step continuity errors : sum local = 5.71922e-09, global = 3.31331e-12, cumulative = -8.17846e-11
smoothSolver:  Solving for k, Initial residual = 0.000778097, Final residual = 9.13687e-07, No Iterations 8
bounding k, min: -0.000187769 max: 6.18406 average: 0.910842
ExecutionTime = 3.09 s  ClockTime = 4 s

Courant Number mean: 50.121 max: 59.8398
Time = 0.17

PIMPLE: Iteration 1
diagonal:  Solving for rho, Initial residual = 0, Final residual = 0, No Iterations 0
smoothSolver:  Solving for Ux, Initial residual = 0.00128261, Final residual = 7.87946e-06, No Iterations 6
smoothSolver:  Solving for Uy, Initial residual = 0.00587585, Final residual = 3.51295e-05, No Iterations 6
smoothSolver:  Solving for e, Initial residual = 0.000784099, Final residual = 7.54037e-06, No Iterations 5
DICPCG:  Solving for p, Initial residual = 0.104141, Final residual = 8.71395e-07, No Iterations 71
diagonal:  Solving for rho, Initial residual = 0, Final residual = 0, No Iterations 0
time step continuity errors : sum local = 1.05674e-08, global = -9.43454e-12, cumulative = -9.12191e-11
PIMPLE: Iteration 2
smoothSolver:  Solving for Ux, Initial residual = 0.00196381, Final residual = 1.43056e-05, No Iterations 6
smoothSolver:  Solving for Uy, Initial residual = 0.00533564, Final residual = 2.47265e-05, No Iterations 6
smoothSolver:  Solving for e, Initial residual = 0.000590005, Final residual = 2.83287e-06, No Iterations 6
DICPCG:  Solving for p, Initial residual = 0.105988, Final residual = 6.59818e-07, No Iterations 72
diagonal:  Solving for rho, Initial residual = 0, Final residual = 0, No Iterations 0
time step continuity errors : sum local = 7.76563e-09, global = 4.7296e-12, cumulative = -8.64895e-11
PIMPLE: Iteration 3
smoothSolver:  Solving for Ux, Initial residual = 0.00171529, Final residual = 4.84905e-07, No Iterations 10
smoothSolver:  Solving for Uy, Initial residual = 0.00732351, Final residual = 9.93837e-07, No Iterations 10
smoothSolver:  Solving for e, Initial residual = 0.000595409, Final residual = 4.20033e-07, No Iterations 8
DICPCG:  Solving for p, Initial residual = 0.0579387, Final residual = 8.62765e-07, No Iterations 66
diagonal:  Solving for rho, Initial residual = 0, Final residual = 0, No Iterations 0
time step continuity errors : sum local = 9.81416e-09, global = -9.06368e-12, cumulative = -9.55532e-11
smoothSolver:  Solving for k, Initial residual = 0.000683622, Final residual = 5.16487e-07, No Iterations 9
bounding k, min: -0.000138753 max: 6.1834 average: 0.910366
ExecutionTime = 3.16 s  ClockTime = 4 s

Courant Number mean: 50.1236 max: 60.1234
Time = 0.175

PIMPLE: Iteration 1
diagonal:  Solving for rho, Initial residual = 0, Final residual = 0, No Iterations 0
smoothSolver:  Solving for Ux, Initial residual = 0.00116219, Final residual = 7.29848e-06, No Iterations 6
smoothSolver:  Solving for Uy, Initial residual = 0.00645892, Final residual = 3.47714e-05, No Iterations 6
smoothSolver:  Solving for e, Initial residual = 0.00068193, Final residual = 6.24519e-06, No Iterations 5
[...]
smoothSolver:  Solving for e, Initial residual = 1.5345e-05, Final residual = 4.50617e-07, No Iterations 3
DICPCG:  Solving for p, Initial residual = 0.00415881, Final residual = 9.09085e-07, No Iterations 57
diagonal:  Solving for rho, Initial residual = 0, Final residual = 0, No Iterations 0
time step continuity errors : sum local = 1.01269e-08, global = -4.13024e-12, cumulative = -3.12978e-09
PIMPLE: Iteration 2
smoothSolver:  Solving for Ux, Initial residual = 7.15984e-06, Final residual = 7.7498e-07, No Iterations 2
smoothSolver:  Solving for Uy, Initial residual = 8.78968e-05, Final residual = 6.03681e-07, No Iterations 5
smoothSolver:  Solving for e, Initial residual = 9.97563e-06, Final residual = 8.32382e-07, No Iterations 2
DICPCG:  Solving for p, Initial residual = 0.00216032, Final residual = 9.26127e-07, No Iterations 57
diagonal:  Solving for rho, Initial residual = 0, Final residual = 0, No Iterations 0
time step continuity errors : sum local = 1.03243e-08, global = 1.3849e-12, cumulative = -3.12839e-09
PIMPLE: Iteration 3
smoothSolver:  Solving for Ux, Initial residual = 4.3919e-06, Final residual = 4.94328e-07, No Iterations 2
smoothSolver:  Solving for Uy, Initial residual = 5.31429e-05, Final residual = 9.41019e-07, No Iterations 4
smoothSolver:  Solving for e, Initial residual = 8.28316e-06, Final residual = 7.50322e-07, No Iterations 2
DICPCG:  Solving for p, Initial residual = 0.00137402, Final residual = 9.14388e-07, No Iterations 56
diagonal:  Solving for rho, Initial residual = 0, Final residual = 0, No Iterations 0
time step continuity errors : sum local = 1.01974e-08, global = -1.48707e-11, cumulative = -3.14326e-09
smoothSolver:  Solving for k, Initial residual = 3.5887e-05, Final residual = 5.60454e-07, No Iterations 4
bounding k, min: -0.00012744 max: 6.18378 average: 0.912668
ExecutionTime = 7.7 s  ClockTime = 8 s

Courant Number mean: 50.1743 max: 61.169
Time = 0.465

PIMPLE: Iteration 1
diagonal:  Solving for rho, Initial residual = 0, Final residual = 0, No Iterations 0
smoothSolver:  Solving for Ux, Initial residual = 5.98134e-06, Final residual = 6.53904e-07, No Iterations 2
smoothSolver:  Solving for Uy, Initial residual = 7.0876e-05, Final residual = 7.70426e-07, No Iterations 5
smoothSolver:  Solving for e, Initial residual = 1.39444e-05, Final residual = 4.08266e-07, No Iterations 3
DICPCG:  Solving for p, Initial residual = 0.00340095, Final residual = 7.7183e-07, No Iterations 59
diagonal:  Solving for rho, Initial residual = 0, Final residual = 0, No Iterations 0
time step continuity errors : sum local = 8.6041e-09, global = -1.5802e-12, cumulative = -3.14484e-09
PIMPLE: Iteration 2
smoothSolver:  Solving for Ux, Initial residual = 6.9876e-06, Final residual = 8.11462e-07, No Iterations 2
smoothSolver:  Solving for Uy, Initial residual = 7.89475e-05, Final residual = 5.23004e-07, No Iterations 5
smoothSolver:  Solving for e, Initial residual = 9.40603e-06, Final residual = 9.86731e-07, No Iterations 2
DICPCG:  Solving for p, Initial residual = 0.00247432, Final residual = 8.39418e-07, No Iterations 58
diagonal:  Solving for rho, Initial residual = 0, Final residual = 0, No Iterations 0
time step continuity errors : sum local = 9.34991e-09, global = 6.60605e-12, cumulative = -3.13824e-09
PIMPLE: Iteration 3
smoothSolver:  Solving for Ux, Initial residual = 4.85165e-06, Final residual = 5.46272e-07, No Iterations 2
smoothSolver:  Solving for Uy, Initial residual = 5.06178e-05, Final residual = 9.06947e-07, No Iterations 4
smoothSolver:  Solving for e, Initial residual = 8.97304e-06, Final residual = 8.59922e-07, No Iterations 2
DICPCG:  Solving for p, Initial residual = 0.0013542, Final residual = 6.63005e-07, No Iterations 58
diagonal:  Solving for rho, Initial residual = 0, Final residual = 0, No Iterations 0
time step continuity errors : sum local = 7.38313e-09, global = 2.10459e-12, cumulative = -3.13613e-09
smoothSolver:  Solving for k, Initial residual = 4.26317e-05, Final residual = 7.058e-07, No Iterations 3
bounding k, min: 0 max: 6.18479 average: 0.912673
ExecutionTime = 7.76 s  ClockTime = 8 s

Courant Number mean: 50.1743 max: 61.1689
Time = 0.47

PIMPLE: Iteration 1
diagonal:  Solving for rho, Initial residual = 0, Final residual = 0, No Iterations 0
smoothSolver:  Solving for Ux, Initial residual = 6.07466e-06, Final residual = 7.36731e-07, No Iterations 2
smoothSolver:  Solving for Uy, Initial residual = 7.4158e-05, Final residual = 8.93303e-07, No Iterations 5
smoothSolver:  Solving for e, Initial residual = 1.45437e-05, Final residual = 4.29091e-07, No Iterations 3
DICPCG:  Solving for p, Initial residual = 0.00325733, Final residual = 5.81918e-07, No Iterations 59
diagonal:  Solving for rho, Initial residual = 0, Final residual = 0, No Iterations 0
time step continuity errors : sum local = 6.48323e-09, global = 2.12296e-14, cumulative = -3.13611e-09
PIMPLE: Iteration 2
smoothSolver:  Solving for Ux, Initial residual = 6.60086e-06, Final residual = 7.38097e-07, No Iterations 2
smoothSolver:  Solving for Uy, Initial residual = 8.06736e-05, Final residual = 5.53717e-07, No Iterations 5
smoothSolver:  Solving for e, Initial residual = 9.88604e-06, Final residual = 3.69533e-07, No Iterations 3
DICPCG:  Solving for p, Initial residual = 0.00305253, Final residual = 7.44807e-07, No Iterations 58
diagonal:  Solving for rho, Initial residual = 0, Final residual = 0, No Iterations 0
time step continuity errors : sum local = 8.30469e-09, global = 2.20187e-12, cumulative = -3.13391e-09
PIMPLE: Iteration 3
smoothSolver:  Solving for Ux, Initial residual = 4.83769e-06, Final residual = 5.3836e-07, No Iterations 2
smoothSolver:  Solving for Uy, Initial residual = 5.56606e-05, Final residual = 9.85307e-07, No Iterations 4
smoothSolver:  Solving for e, Initial residual = 8.92484e-06, Final residual = 8.38195e-07, No Iterations 2
DICPCG:  Solving for p, Initial residual = 0.00124365, Final residual = 5.58067e-07, No Iterations 58
diagonal:  Solving for rho, Initial residual = 0, Final residual = 0, No Iterations 0
time step continuity errors : sum local = 6.22404e-09, global = -6.30381e-13, cumulative = -3.13454e-09
smoothSolver:  Solving for k, Initial residual = 3.36972e-05, Final residual = 4.94694e-07, No Iterations 4
bounding k, min: -0.000159885 max: 6.18379 average: 0.912663
ExecutionTime = 7.84 s  ClockTime = 9 s

Courant Number mean: 50.1743 max: 61.1689
Time = 0.475

PIMPLE: Iteration 1
diagonal:  Solving for rho, Initial residual = 0, Final residual = 0, No Iterations 0
smoothSolver:  Solving for Ux, Initial residual = 5.81834e-06, Final residual = 7.73188e-07, No Iterations 2
smoothSolver:  Solving for Uy, Initial residual = 7.20913e-05, Final residual = 8.49073e-07, No Iterations 5
smoothSolver:  Solving for e, Initial residual = 1.45626e-05, Final residual = 4.31036e-07, No Iterations 3
DICPCG:  Solving for p, Initial residual = 0.00374205, Final residual = 7.73007e-07, No Iterations 59
diagonal:  Solving for rho, Initial residual = 0, Final residual = 0, No Iterations 0
time step continuity errors : sum local = 8.61742e-09, global = -3.19966e-12, cumulative = -3.13774e-09
PIMPLE: Iteration 2
smoothSolver:  Solving for Ux, Initial residual = 6.94611e-06, Final residual = 7.93678e-07, No Iterations 2
smoothSolver:  Solving for Uy, Initial residual = 8.77433e-05, Final residual = 5.95271e-07, No Iterations 5
smoothSolver:  Solving for e, Initial residual = 9.07508e-06, Final residual = 9.13605e-07, No Iterations 2
DICPCG:  Solving for p, Initial residual = 0.00224193, Final residual = 6.48969e-07, No Iterations 58
diagonal:  Solving for rho, Initial residual = 0, Final residual = 0, No Iterations 0
time step continuity errors : sum local = 7.22736e-09, global = -2.53889e-12, cumulative = -3.14028e-09
PIMPLE: Iteration 3
smoothSolver:  Solving for Ux, Initial residual = 4.47306e-06, Final residual = 5.04446e-07, No Iterations 2
smoothSolver:  Solving for Uy, Initial residual = 5.61313e-05, Final residual = 4.29119e-07, No Iterations 5
smoothSolver:  Solving for e, Initial residual = 8.34756e-06, Final residual = 7.87661e-07, No Iterations 2
DICPCG:  Solving for p, Initial residual = 0.00132306, Final residual = 6.47997e-07, No Iterations 58
diagonal:  Solving for rho, Initial residual = 0, Final residual = 0, No Iterations 0
time step continuity errors : sum local = 7.21392e-09, global = 7.2251e-13, cumulative = -3.13956e-09
smoothSolver:  Solving for k, Initial residual = 4.39215e-05, Final residual = 7.81223e-07, No Iterations 3
bounding k, min: 0 max: 6.18485 average: 0.912669
ExecutionTime = 7.9 s  ClockTime = 9 s

Courant Number mean: 50.1743 max: 61.1688
Time = 0.48

PIMPLE: Iteration 1
diagonal:  Solving for rho, Initial residual = 0, Final residual = 0, No Iterations 0
smoothSolver:  Solving for Ux, Initial residual = 6.43253e-06, Final residual = 7.97611e-07, No Iterations 2
smoothSolver:  Solving for Uy, Initial residual = 8.24715e-05, Final residual = 9.26154e-07, No Iterations 5
smoothSolver:  Solving for e, Initial residual = 1.44305e-05, Final residual = 4.21235e-07, No Iterations 3
DICPCG:  Solving for p, Initial residual = 0.00410894, Final residual = 7.58873e-07, No Iterations 59
diagonal:  Solving for rho, Initial residual = 0, Final residual = 0, No Iterations 0
time step continuity errors : sum local = 8.45321e-09, global = -4.27243e-12, cumulative = -3.14383e-09
PIMPLE: Iteration 2
smoothSolver:  Solving for Ux, Initial residual = 7.09865e-06, Final residual = 8.3137e-07, No Iterations 2
smoothSolver:  Solving for Uy, Initial residual = 8.89344e-05, Final residual = 6.33181e-07, No Iterations 5
smoothSolver:  Solving for e, Initial residual = 8.87564e-06, Final residual = 8.66198e-07, No Iterations 2
DICPCG:  Solving for p, Initial residual = 0.00210557, Final residual = 9.12902e-07, No Iterations 58
diagonal:  Solving for rho, Initial residual = 0, Final residual = 0, No Iterations 0
time step continuity errors : sum local = 1.01779e-08, global = 2.32063e-12, cumulative = -3.14151e-09
PIMPLE: Iteration 3
smoothSolver:  Solving for Ux, Initial residual = 4.36593e-06, Final residual = 5.0669e-07, No Iterations 2
smoothSolver:  Solving for Uy, Initial residual = 5.7087e-05, Final residual = 4.35e-07, No Iterations 5
smoothSolver:  Solving for e, Initial residual = 7.96958e-06, Final residual = 7.44626e-07, No Iterations 2
DICPCG:  Solving for p, Initial residual = 0.00134228, Final residual = 7.09648e-07, No Iterations 58
diagonal:  Solving for rho, Initial residual = 0, Final residual = 0, No Iterations 0
time step continuity errors : sum local = 7.91544e-09, global = -8.74366e-13, cumulative = -3.14238e-09
smoothSolver:  Solving for k, Initial residual = 4.13997e-05, Final residual = 8.72982e-07, No Iterations 4
bounding k, min: -0.000150209 max: 6.18384 average: 0.912657
ExecutionTime = 7.98 s  ClockTime = 9 s

Courant Number mean: 50.1743 max: 61.1689
Time = 0.485

PIMPLE: Iteration 1
diagonal:  Solving for rho, Initial residual = 0, Final residual = 0, No Iterations 0
smoothSolver:  Solving for Ux, Initial residual = 6.40576e-06, Final residual = 6.48521e-07, No Iterations 2
smoothSolver:  Solving for Uy, Initial residual = 7.92162e-05, Final residual = 9.33406e-07, No Iterations 5
smoothSolver:  Solving for e, Initial residual = 1.39202e-05, Final residual = 4.0353e-07, No Iterations 3
DICPCG:  Solving for p, Initial residual = 0.00356723, Final residual = 7.401e-07, No Iterations 59
diagonal:  Solving for rho, Initial residual = 0, Final residual = 0, No Iterations 0
time step continuity errors : sum local = 8.25151e-09, global = -2.98023e-12, cumulative = -3.14536e-09
PIMPLE: Iteration 2
smoothSolver:  Solving for Ux, Initial residual = 6.95355e-06, Final residual = 8.00942e-07, No Iterations 2
smoothSolver:  Solving for Uy, Initial residual = 8.43526e-05, Final residual = 5.78265e-07, No Iterations 5
smoothSolver:  Solving for e, Initial residual = 9.66291e-06, Final residual = 3.67102e-07, No Iterations 3
DICPCG:  Solving for p, Initial residual = 0.00281674, Final residual = 8.62523e-07, No Iterations 57
diagonal:  Solving for rho, Initial residual = 0, Final residual = 0, No Iterations 0
time step continuity errors : sum local = 9.60897e-09, global = -3.70708e-12, cumulative = -3.14907e-09
PIMPLE: Iteration 3
smoothSolver:  Solving for Ux, Initial residual = 4.87733e-06, Final residual = 5.49792e-07, No Iterations 2
smoothSolver:  Solving for Uy, Initial residual = 5.51153e-05, Final residual = 4.36506e-07, No Iterations 5
smoothSolver:  Solving for e, Initial residual = 8.38026e-06, Final residual = 8.12756e-07, No Iterations 2
DICPCG:  Solving for p, Initial residual = 0.00122704, Final residual = 6.89125e-07, No Iterations 58
diagonal:  Solving for rho, Initial residual = 0, Final residual = 0, No Iterations 0
time step continuity errors : sum local = 7.67491e-09, global = 1.4345e-14, cumulative = -3.14906e-09
smoothSolver:  Solving for k, Initial residual = 4.23874e-05, Final residual = 7.61664e-07, No Iterations 3
bounding k, min: 0 max: 6.18484 average: 0.912661
ExecutionTime = 8.04 s  ClockTime = 9 s

Courant Number mean: 50.1743 max: 61.1688
Time = 0.49

PIMPLE: Iteration 1
diagonal:  Solving for rho, Initial residual = 0, Final residual = 0, No Iterations 0
smoothSolver:  Solving for Ux, Initial residual = 6.12867e-06, Final residual = 7.45993e-07, No Iterations 2
smoothSolver:  Solving for Uy, Initial residual = 7.27852e-05, Final residual = 8.67295e-07, No Iterations 5
smoothSolver:  Solving for e, Initial residual = 1.40608e-05, Final residual = 4.20355e-07, No Iterations 3
DICPCG:  Solving for p, Initial residual = 0.00322705, Final residual = 6.22868e-07, No Iterations 59
diagonal:  Solving for rho, Initial residual = 0, Final residual = 0, No Iterations 0
time step continuity errors : sum local = 6.94053e-09, global = 2.27401e-13, cumulative = -3.14883e-09
PIMPLE: Iteration 2
smoothSolver:  Solving for Ux, Initial residual = 6.81285e-06, Final residual = 7.91309e-07, No Iterations 2
smoothSolver:  Solving for Uy, Initial residual = 7.97664e-05, Final residual = 5.4294e-07, No Iterations 5
smoothSolver:  Solving for e, Initial residual = 9.62216e-06, Final residual = 3.64178e-07, No Iterations 3
DICPCG:  Solving for p, Initial residual = 0.00295661, Final residual = 7.24729e-07, No Iterations 58
diagonal:  Solving for rho, Initial residual = 0, Final residual = 0, No Iterations 0
time step continuity errors : sum local = 8.08184e-09, global = 3.08472e-12, cumulative = -3.14574e-09
PIMPLE: Iteration 3
smoothSolver:  Solving for Ux, Initial residual = 4.87121e-06, Final residual = 5.31045e-07, No Iterations 2
smoothSolver:  Solving for Uy, Initial residual = 5.46257e-05, Final residual = 9.87476e-07, No Iterations 4
smoothSolver:  Solving for e, Initial residual = 8.65412e-06, Final residual = 8.12919e-07, No Iterations 2
DICPCG:  Solving for p, Initial residual = 0.00118873, Final residual = 6.91652e-07, No Iterations 58
diagonal:  Solving for rho, Initial residual = 0, Final residual = 0, No Iterations 0
time step continuity errors : sum local = 7.71521e-09, global = -1.77903e-12, cumulative = -3.14752e-09
smoothSolver:  Solving for k, Initial residual = 4.41604e-05, Final residual = 7.44761e-07, No Iterations 4
bounding k, min: -0.000184165 max: 6.18379 average: 0.912647
ExecutionTime = 8.11 s  ClockTime = 9 s

Courant Number mean: 50.1743 max: 61.1688
Time = 0.495

PIMPLE: Iteration 1
diagonal:  Solving for rho, Initial residual = 0, Final residual = 0, No Iterations 0
smoothSolver:  Solving for Ux, Initial residual = 6.18883e-06, Final residual = 8.74228e-07, No Iterations 2
smoothSolver:  Solving for Uy, Initial residual = 8.12291e-05, Final residual = 5.23343e-07, No Iterations 6
smoothSolver:  Solving for e, Initial residual = 1.41987e-05, Final residual = 4.26317e-07, No Iterations 3
DICPCG:  Solving for p, Initial residual = 0.00415645, Final residual = 8.88601e-07, No Iterations 59
diagonal:  Solving for rho, Initial residual = 0, Final residual = 0, No Iterations 0
time step continuity errors : sum local = 9.904e-09, global = 2.29006e-12, cumulative = -3.14523e-09
PIMPLE: Iteration 2
smoothSolver:  Solving for Ux, Initial residual = 6.99462e-06, Final residual = 8.01643e-07, No Iterations 2
smoothSolver:  Solving for Uy, Initial residual = 9.72802e-05, Final residual = 7.75448e-07, No Iterations 5
smoothSolver:  Solving for e, Initial residual = 8.92308e-06, Final residual = 8.82094e-07, No Iterations 2
DICPCG:  Solving for p, Initial residual = 0.00248153, Final residual = 8.86891e-07, No Iterations 58
diagonal:  Solving for rho, Initial residual = 0, Final residual = 0, No Iterations 0
time step continuity errors : sum local = 9.87256e-09, global = -6.03742e-12, cumulative = -3.15127e-09
PIMPLE: Iteration 3
smoothSolver:  Solving for Ux, Initial residual = 4.4515e-06, Final residual = 4.89315e-07, No Iterations 2
smoothSolver:  Solving for Uy, Initial residual = 6.38363e-05, Final residual = 5.52881e-07, No Iterations 5
smoothSolver:  Solving for e, Initial residual = 8.28308e-06, Final residual = 7.74243e-07, No Iterations 2
DICPCG:  Solving for p, Initial residual = 0.00145162, Final residual = 7.51827e-07, No Iterations 58
diagonal:  Solving for rho, Initial residual = 0, Final residual = 0, No Iterations 0
time step continuity errors : sum local = 8.36471e-09, global = 2.72121e-12, cumulative = -3.14855e-09
smoothSolver:  Solving for k, Initial residual = 5.19205e-05, Final residual = 7.307e-07, No Iterations 3
bounding k, min: 0 max: 6.18478 average: 0.912649
ExecutionTime = 8.18 s  ClockTime = 9 s

Courant Number mean: 50.1743 max: 61.1688
Time = 0.5

PIMPLE: Iteration 1
diagonal:  Solving for rho, Initial residual = 0, Final residual = 0, No Iterations 0
smoothSolver:  Solving for Ux, Initial residual = 7.04806e-06, Final residual = 8.65039e-07, No Iterations 2
smoothSolver:  Solving for Uy, Initial residual = 9.25453e-05, Final residual = 5.12706e-07, No Iterations 6
smoothSolver:  Solving for e, Initial residual = 1.42383e-05, Final residual = 4.1852e-07, No Iterations 3
DICPCG:  Solving for p, Initial residual = 0.0047529, Final residual = 7.74242e-07, No Iterations 60
diagonal:  Solving for rho, Initial residual = 0, Final residual = 0, No Iterations 0
time step continuity errors : sum local = 8.61816e-09, global = -1.49644e-12, cumulative = -3.15004e-09
PIMPLE: Iteration 2
smoothSolver:  Solving for Ux, Initial residual = 7.73771e-06, Final residual = 9.20076e-07, No Iterations 2
smoothSolver:  Solving for Uy, Initial residual = 9.7373e-05, Final residual = 7.67502e-07, No Iterations 5
smoothSolver:  Solving for e, Initial residual = 9.03497e-06, Final residual = 8.92508e-07, No Iterations 2
DICPCG:  Solving for p, Initial residual = 0.00235355, Final residual = 9.84785e-07, No Iterations 58
diagonal:  Solving for rho, Initial residual = 0, Final residual = 0, No Iterations 0
time step continuity errors : sum local = 1.09752e-08, global = 1.28479e-11, cumulative = -3.1372e-09
PIMPLE: Iteration 3
smoothSolver:  Solving for Ux, Initial residual = 4.90672e-06, Final residual = 5.79301e-07, No Iterations 2
smoothSolver:  Solving for Uy, Initial residual = 6.31013e-05, Final residual = 5.2856e-07, No Iterations 5
smoothSolver:  Solving for e, Initial residual = 8.05423e-06, Final residual = 7.60369e-07, No Iterations 2
DICPCG:  Solving for p, Initial residual = 0.00151048, Final residual = 8.15718e-07, No Iterations 58
diagonal:  Solving for rho, Initial residual = 0, Final residual = 0, No Iterations 0
time step continuity errors : sum local = 9.09573e-09, global = -6.44336e-12, cumulative = -3.14364e-09
smoothSolver:  Solving for k, Initial residual = 4.56171e-05, Final residual = 8.92143e-07, No Iterations 4
bounding k, min: -0.000179385 max: 6.18373 average: 0.912634
ExecutionTime = 8.38 s  ClockTime = 9 s

End

