/*---------------------------------------------------------------------------*\
  =========                 |
  \\      /  F ield         | OpenFOAM: The Open Source CFD Toolbox
   \\    /   O peration     | Website:  https://openfoam.org
    \\  /    A nd           | Version:  7
     \\/     M anipulation  |
\*---------------------------------------------------------------------------*/
Build  : 7-49b2b3b8b082
Exec   : rhoPimpleFoam
Date   : Apr 06 2023
Time   : 16:02:02
Host   : "c402-052.stampede2.tacc.utexas.edu"
PID    : 124263
I/O    : uncollated
Case   : /home1/07645/eesha_n/SeniorDesign/CooliestModel/src/CFD/pipe_validation
nProcs : 1
sigFpe : Enabling floating point exception trapping (FOAM_SIGFPE).
fileModificationChecking : Monitoring run-time modified files using timeStampMaster (fileModificationSkew 10)
allowSystemOperations : Allowing user-supplied system call operations

// * * * * * * * * * * * * * * * * * * * * * * * * * * * * * * * * * * * * * //
Create time

Create mesh for time = 0


PIMPLE: No convergence criteria found


PIMPLE: No corrector convergence criteria found
        Calculations will do 3 corrections


PIMPLE: Operating solver in transient mode with 3 outer correctors


Reading thermophysical properties

Selecting thermodynamics package 
{
    type            hePsiThermo;
    mixture         pureMixture;
    transport       const;
    thermo          eConst;
    equationOfState perfectGas;
    specie          specie;
    energy          sensibleInternalEnergy;
}

--> FOAM Warning : 
    From function Foam::Field<Type>::Field(const Foam::word &, const Foam::dictionary &, int) [with Type = double]
    in file /home1/apps/intel18/impi18_0/OpenFOAM/OpenFOAM-7/src/OpenFOAM/lnInclude/Field.C at line 235
    Reading "/home1/07645/eesha_n/SeniorDesign/CooliestModel/src/CFD/pipe_validation/0/T.boundaryField.lowerWall" from line 44 to line 19
    expected keyword 'uniform' or 'nonuniform', assuming deprecated Field format from Foam version 2.0.
Reading field U

Reading/calculating face flux field phi

pressureControl
    pMax 200000
    pMin 50000

Creating turbulence model

Selecting turbulence model type LES
Selecting LES turbulence model kEqn
Selecting LES delta type cubeRootVol
--> FOAM Warning : 
    From function void Foam::LESModels::cubeRootVolDelta::calcDelta()
    in file LES/LESdeltas/cubeRootVolDelta/cubeRootVolDelta.C at line 55
    Case is 2D, LES is not strictly applicable

bounding k, min: 0 max: 2e-05 average: 0
LES
{
    LESModel        kEqn;
    turbulence      on;
    printCoeffs     on;
    delta           cubeRootVol;
    cubeRootVolCoeffs
    {
        deltaCoeff      1;
    }
    PrandtlCoeffs
    {
        delta           cubeRootVol;
        cubeRootVolCoeffs
        {
            deltaCoeff      1;
        }
        smoothCoeffs
        {
            delta           cubeRootVol;
            cubeRootVolCoeffs
            {
                deltaCoeff      1;
            }
            maxDeltaRatio   1.1;
        }
        Cdelta          0.158;
    }
    vanDriestCoeffs
    {
        delta           cubeRootVol;
        cubeRootVolCoeffs
        {
            deltaCoeff      1;
        }
        smoothCoeffs
        {
            delta           cubeRootVol;
            cubeRootVolCoeffs
            {
                deltaCoeff      1;
            }
            maxDeltaRatio   1.1;
        }
        Aplus           26;
        Cdelta          0.158;
    }
    smoothCoeffs
    {
        delta           cubeRootVol;
        cubeRootVolCoeffs
        {
            deltaCoeff      1;
        }
        maxDeltaRatio   1.1;
    }
    Ce              1.048;
    Ck              0.094;
}

Creating field dpdt

Creating field kinetic energy K

No MRF models present

No finite volume options present
Courant Number mean: 0.000625 max: 0.075

Starting time loop

Courant Number mean: 0.000625 max: 0.075
Time = 0.005

PIMPLE: Iteration 1
diagonal:  Solving for rho, Initial residual = 0, Final residual = 0, No Iterations 0
smoothSolver:  Solving for Ux, Initial residual = 1, Final residual = 9.13421e-08, No Iterations 1
smoothSolver:  Solving for Uy, Initial residual = 1, Final residual = 4.98116e-08, No Iterations 1
smoothSolver:  Solving for e, Initial residual = 1, Final residual = 1.48309e-07, No Iterations 1
DICPCG:  Solving for p, Initial residual = 1, Final residual = 5.51287e-07, No Iterations 104
diagonal:  Solving for rho, Initial residual = 0, Final residual = 0, No Iterations 0
time step continuity errors : sum local = 9.67254e-10, global = 1.71485e-11, cumulative = 1.71485e-11
PIMPLE: Iteration 2
smoothSolver:  Solving for Ux, Initial residual = 0.124068, Final residual = 0.000181528, No Iterations 1
smoothSolver:  Solving for Uy, Initial residual = 0.384189, Final residual = 6.31902e-05, No Iterations 1
smoothSolver:  Solving for e, Initial residual = 0.434595, Final residual = 0.000193723, No Iterations 1
DICPCG:  Solving for p, Initial residual = 0.141317, Final residual = 8.18704e-07, No Iterations 71
diagonal:  Solving for rho, Initial residual = 0, Final residual = 0, No Iterations 0
time step continuity errors : sum local = 4.70513e-09, global = -1.47664e-10, cumulative = -1.30515e-10
PIMPLE: Iteration 3
smoothSolver:  Solving for Ux, Initial residual = 0.0036295, Final residual = 1.39535e-09, No Iterations 2
smoothSolver:  Solving for Uy, Initial residual = 0.00395303, Final residual = 9.15059e-10, No Iterations 2
smoothSolver:  Solving for e, Initial residual = 0.240669, Final residual = 3.17543e-08, No Iterations 2
DICPCG:  Solving for p, Initial residual = 0.113967, Final residual = 9.23087e-07, No Iterations 66
diagonal:  Solving for rho, Initial residual = 0, Final residual = 0, No Iterations 0
time step continuity errors : sum local = 5.27277e-09, global = -5.21851e-10, cumulative = -6.52367e-10
smoothSolver:  Solving for k, Initial residual = 0.953561, Final residual = 5.99564e-09, No Iterations 3
bounding k, min: 0 max: 0.000441213 average: 7.05984e-07
ExecutionTime = 0.33 s  ClockTime = 1 s

Courant Number mean: 0.0125046 max: 0.152042
Time = 0.01

PIMPLE: Iteration 1
diagonal:  Solving for rho, Initial residual = 0, Final residual = 0, No Iterations 0
smoothSolver:  Solving for Ux, Initial residual = 0.317464, Final residual = 0.000227212, No Iterations 1
smoothSolver:  Solving for Uy, Initial residual = 0.644755, Final residual = 4.94342e-05, No Iterations 1
smoothSolver:  Solving for e, Initial residual = 0.379279, Final residual = 9.35022e-05, No Iterations 1
DICPCG:  Solving for p, Initial residual = 0.702891, Final residual = 8.44242e-07, No Iterations 80
diagonal:  Solving for rho, Initial residual = 0, Final residual = 0, No Iterations 0
time step continuity errors : sum local = 5.22027e-09, global = 3.58449e-10, cumulative = -2.93918e-10
PIMPLE: Iteration 2
smoothSolver:  Solving for Ux, Initial residual = 0.00319968, Final residual = 5.71236e-06, No Iterations 1
smoothSolver:  Solving for Uy, Initial residual = 0.00496291, Final residual = 5.46389e-06, No Iterations 1
smoothSolver:  Solving for e, Initial residual = 0.0719067, Final residual = 9.23593e-05, No Iterations 1
DICPCG:  Solving for p, Initial residual = 0.0460539, Final residual = 8.34724e-07, No Iterations 67
diagonal:  Solving for rho, Initial residual = 0, Final residual = 0, No Iterations 0
time step continuity errors : sum local = 7.81376e-09, global = 6.69678e-10, cumulative = 3.75761e-10
PIMPLE: Iteration 3
smoothSolver:  Solving for Ux, Initial residual = 0.000867576, Final residual = 2.29706e-09, No Iterations 2
smoothSolver:  Solving for Uy, Initial residual = 0.000535828, Final residual = 6.65166e-07, No Iterations 1
smoothSolver:  Solving for e, Initial residual = 0.0173818, Final residual = 4.35408e-08, No Iterations 2
DICPCG:  Solving for p, Initial residual = 0.011112, Final residual = 9.4965e-07, No Iterations 56
diagonal:  Solving for rho, Initial residual = 0, Final residual = 0, No Iterations 0
time step continuity errors : sum local = 8.77656e-09, global = -6.77523e-10, cumulative = -3.01762e-10
smoothSolver:  Solving for k, Initial residual = 0.913058, Final residual = 3.79497e-09, No Iterations 3
bounding k, min: 0 max: 0.00986455 average: 2.97022e-05
ExecutionTime = 0.41 s  ClockTime = 1 s

Courant Number mean: 0.025115 max: 0.161917
Time = 0.015

PIMPLE: Iteration 1
diagonal:  Solving for rho, Initial residual = 0, Final residual = 0, No Iterations 0
smoothSolver:  Solving for Ux, Initial residual = 0.204139, Final residual = 0.000188788, No Iterations 1
smoothSolver:  Solving for Uy, Initial residual = 0.358788, Final residual = 9.15293e-05, No Iterations 1
smoothSolver:  Solving for e, Initial residual = 0.222219, Final residual = 9.03073e-05, No Iterations 1
DICPCG:  Solving for p, Initial residual = 0.268927, Final residual = 9.95625e-07, No Iterations 74
diagonal:  Solving for rho, Initial residual = 0, Final residual = 0, No Iterations 0
time step continuity errors : sum local = 1.01941e-08, global = 5.30154e-10, cumulative = 2.28391e-10
PIMPLE: Iteration 2
smoothSolver:  Solving for Ux, Initial residual = 0.0018661, Final residual = 3.8164e-06, No Iterations 1
smoothSolver:  Solving for Uy, Initial residual = 0.00252593, Final residual = 3.97005e-06, No Iterations 1
smoothSolver:  Solving for e, Initial residual = 0.0416288, Final residual = 6.11198e-05, No Iterations 1
DICPCG:  Solving for p, Initial residual = 0.0265139, Final residual = 9.43685e-07, No Iterations 62
diagonal:  Solving for rho, Initial residual = 0, Final residual = 0, No Iterations 0
time step continuity errors : sum local = 1.28727e-08, global = 1.42843e-09, cumulative = 1.65682e-09
PIMPLE: Iteration 3
smoothSolver:  Solving for Ux, Initial residual = 0.000415827, Final residual = 7.31167e-07, No Iterations 1
smoothSolver:  Solving for Uy, Initial residual = 0.000710407, Final residual = 3.51058e-09, No Iterations 2
smoothSolver:  Solving for e, Initial residual = 0.00765293, Final residual = 2.81443e-08, No Iterations 2
DICPCG:  Solving for p, Initial residual = 0.00498461, Final residual = 9.20597e-07, No Iterations 51
diagonal:  Solving for rho, Initial residual = 0, Final residual = 0, No Iterations 0
time step continuity errors : sum local = 1.24278e-08, global = -1.54944e-09, cumulative = 1.07376e-10
smoothSolver:  Solving for k, Initial residual = 0.812497, Final residual = 8.9104e-09, No Iterations 3
bounding k, min: 0 max: 0.106831 average: 0.000523835
ExecutionTime = 0.47 s  ClockTime = 1 s

Courant Number mean: 0.0393843 max: 0.163646
Time = 0.02

PIMPLE: Iteration 1
diagonal:  Solving for rho, Initial residual = 0, Final residual = 0, No Iterations 0
smoothSolver:  Solving for Ux, Initial residual = 0.16901, Final residual = 0.00016689, No Iterations 1
smoothSolver:  Solving for Uy, Initial residual = 0.0635674, Final residual = 4.6352e-05, No Iterations 1
smoothSolver:  Solving for e, Initial residual = 0.154547, Final residual = 8.01791e-05, No Iterations 1
DICPCG:  Solving for p, Initial residual = 0.181383, Final residual = 9.92429e-07, No Iterations 70
diagonal:  Solving for rho, Initial residual = 0, Final residual = 0, No Iterations 0
time step continuity errors : sum local = 1.42598e-08, global = 3.52175e-10, cumulative = 4.59551e-10
PIMPLE: Iteration 2
smoothSolver:  Solving for Ux, Initial residual = 0.00153902, Final residual = 3.12117e-06, No Iterations 1
smoothSolver:  Solving for Uy, Initial residual = 0.00110347, Final residual = 2.23322e-06, No Iterations 1
smoothSolver:  Solving for e, Initial residual = 0.0315305, Final residual = 5e-05, No Iterations 1
DICPCG:  Solving for p, Initial residual = 0.0207561, Final residual = 8.44149e-07, No Iterations 57
diagonal:  Solving for rho, Initial residual = 0, Final residual = 0, No Iterations 0
time step continuity errors : sum local = 1.43985e-08, global = 1.50679e-09, cumulative = 1.96634e-09
PIMPLE: Iteration 3
smoothSolver:  Solving for Ux, Initial residual = 0.00029972, Final residual = 5.93943e-07, No Iterations 1
smoothSolver:  Solving for Uy, Initial residual = 0.000835119, Final residual = 3.48247e-09, No Iterations 2
smoothSolver:  Solving for e, Initial residual = 0.00576793, Final residual = 2.54581e-08, No Iterations 2
DICPCG:  Solving for p, Initial residual = 0.00385079, Final residual = 9.83988e-07, No Iterations 47
diagonal:  Solving for rho, Initial residual = 0, Final residual = 0, No Iterations 0
time step continuity errors : sum local = 1.66344e-08, global = -2.19893e-09, cumulative = -2.32592e-10
smoothSolver:  Solving for k, Initial residual = 0.648659, Final residual = 9.64107e-09, No Iterations 3
bounding k, min: 0 max: 0.46497 average: 0.00419808
ExecutionTime = 0.54 s  ClockTime = 1 s

Courant Number mean: 0.0544093 max: 0.165524
Time = 0.025

PIMPLE: Iteration 1
diagonal:  Solving for rho, Initial residual = 0, Final residual = 0, No Iterations 0
smoothSolver:  Solving for Ux, Initial residual = 0.154551, Final residual = 0.00015501, No Iterations 1
smoothSolver:  Solving for Uy, Initial residual = 0.0616337, Final residual = 6.79662e-05, No Iterations 1
smoothSolver:  Solving for e, Initial residual = 0.11877, Final residual = 7.81371e-05, No Iterations 1
DICPCG:  Solving for p, Initial residual = 0.139818, Final residual = 9.41973e-07, No Iterations 67
diagonal:  Solving for rho, Initial residual = 0, Final residual = 0, No Iterations 0
time step continuity errors : sum local = 1.65947e-08, global = 8.39969e-11, cumulative = -1.48595e-10
PIMPLE: Iteration 2
smoothSolver:  Solving for Ux, Initial residual = 0.00141262, Final residual = 2.96582e-06, No Iterations 1
smoothSolver:  Solving for Uy, Initial residual = 0.0018714, Final residual = 3.69205e-06, No Iterations 1
smoothSolver:  Solving for e, Initial residual = 0.0256539, Final residual = 3.89504e-05, No Iterations 1
DICPCG:  Solving for p, Initial residual = 0.0172947, Final residual = 6.43649e-07, No Iterations 55
diagonal:  Solving for rho, Initial residual = 0, Final residual = 0, No Iterations 0
time step continuity errors : sum local = 1.25783e-08, global = 8.59572e-10, cumulative = 7.10977e-10
PIMPLE: Iteration 3
smoothSolver:  Solving for Ux, Initial residual = 0.000252156, Final residual = 5.13109e-07, No Iterations 1
smoothSolver:  Solving for Uy, Initial residual = 0.000859904, Final residual = 3.2686e-09, No Iterations 2
smoothSolver:  Solving for e, Initial residual = 0.00408436, Final residual = 1.59871e-08, No Iterations 2
DICPCG:  Solving for p, Initial residual = 0.0027837, Final residual = 8.10269e-07, No Iterations 46
diagonal:  Solving for rho, Initial residual = 0, Final residual = 0, No Iterations 0
time step continuity errors : sum local = 1.5706e-08, global = -2.93674e-09, cumulative = -2.22576e-09
smoothSolver:  Solving for k, Initial residual = 0.464015, Final residual = 6.66546e-09, No Iterations 3
bounding k, min: 0 max: 1.11983 average: 0.0177106
ExecutionTime = 0.73 s  ClockTime = 1 s

Courant Number mean: 0.069882 max: 0.167209
Time = 0.03

PIMPLE: Iteration 1
diagonal:  Solving for rho, Initial residual = 0, Final residual = 0, No Iterations 0
smoothSolver:  Solving for Ux, Initial residual = 0.154707, Final residual = 0.000156732, No Iterations 1
smoothSolver:  Solving for Uy, Initial residual = 0.0855788, Final residual = 9.72992e-05, No Iterations 1
smoothSolver:  Solving for e, Initial residual = 0.0963204, Final residual = 7.67448e-05, No Iterations 1
DICPCG:  Solving for p, Initial residual = 0.119135, Final residual = 8.50034e-07, No Iterations 62
diagonal:  Solving for rho, Initial residual = 0, Final residual = 0, No Iterations 0
time step continuity errors : sum local = 1.69242e-08, global = 9.29117e-11, cumulative = -2.13285e-09
PIMPLE: Iteration 2
smoothSolver:  Solving for Ux, Initial residual = 0.00140756, Final residual = 2.93444e-06, No Iterations 1
smoothSolver:  Solving for Uy, Initial residual = 0.00286963, Final residual = 5.09192e-06, No Iterations 1
smoothSolver:  Solving for e, Initial residual = 0.0235076, Final residual = 3.31763e-05, No Iterations 1
DICPCG:  Solving for p, Initial residual = 0.0161757, Final residual = 9.94661e-07, No Iterations 50
diagonal:  Solving for rho, Initial residual = 0, Final residual = 0, No Iterations 0
time step continuity errors : sum local = 2.09558e-08, global = -1.17456e-09, cumulative = -3.30741e-09
PIMPLE: Iteration 3
smoothSolver:  Solving for Ux, Initial residual = 0.000243499, Final residual = 4.89053e-07, No Iterations 1
smoothSolver:  Solving for Uy, Initial residual = 0.00112243, Final residual = 4.25167e-09, No Iterations 2
smoothSolver:  Solving for e, Initial residual = 0.00323743, Final residual = 1.20971e-08, No Iterations 2
DICPCG:  Solving for p, Initial residual = 0.00224555, Final residual = 8.38827e-07, No Iterations 45
diagonal:  Solving for rho, Initial residual = 0, Final residual = 0, No Iterations 0
time step continuity errors : sum local = 1.75314e-08, global = -1.70283e-09, cumulative = -5.01024e-09
smoothSolver:  Solving for k, Initial residual = 0.319211, Final residual = 3.81765e-09, No Iterations 3
bounding k, min: 0 max: 1.98521 average: 0.0477357
ExecutionTime = 0.79 s  ClockTime = 1 s

Courant Number mean: 0.0856015 max: 0.175431
Time = 0.035

PIMPLE: Iteration 1
diagonal:  Solving for rho, Initial residual = 0, Final residual = 0, No Iterations 0
smoothSolver:  Solving for Ux, Initial residual = 0.167871, Final residual = 0.000176717, No Iterations 1
smoothSolver:  Solving for Uy, Initial residual = 0.119982, Final residual = 0.000148823, No Iterations 1
smoothSolver:  Solving for e, Initial residual = 0.0803439, Final residual = 7.50128e-05, No Iterations 1
DICPCG:  Solving for p, Initial residual = 0.108472, Final residual = 8.17672e-07, No Iterations 63
diagonal:  Solving for rho, Initial residual = 0, Final residual = 0, No Iterations 0
time step continuity errors : sum local = 1.73158e-08, global = -2.65169e-10, cumulative = -5.27541e-09
PIMPLE: Iteration 2
smoothSolver:  Solving for Ux, Initial residual = 0.00157305, Final residual = 3.18546e-06, No Iterations 1
smoothSolver:  Solving for Uy, Initial residual = 0.00429468, Final residual = 7.72168e-06, No Iterations 1
smoothSolver:  Solving for e, Initial residual = 0.0214538, Final residual = 3.12231e-05, No Iterations 1
DICPCG:  Solving for p, Initial residual = 0.0152988, Final residual = 9.89186e-07, No Iterations 52
diagonal:  Solving for rho, Initial residual = 0, Final residual = 0, No Iterations 0
time step continuity errors : sum local = 2.13302e-08, global = -2.07609e-09, cumulative = -7.3515e-09
PIMPLE: Iteration 3
smoothSolver:  Solving for Ux, Initial residual = 0.000265665, Final residual = 5.17119e-07, No Iterations 1
smoothSolver:  Solving for Uy, Initial residual = 0.00144896, Final residual = 5.74711e-09, No Iterations 2
smoothSolver:  Solving for e, Initial residual = 0.00280092, Final residual = 1.04517e-08, No Iterations 2
DICPCG:  Solving for p, Initial residual = 0.00201059, Final residual = 7.02285e-07, No Iterations 43
diagonal:  Solving for rho, Initial residual = 0, Final residual = 0, No Iterations 0
time step continuity errors : sum local = 1.50178e-08, global = -1.44512e-09, cumulative = -8.79662e-09
smoothSolver:  Solving for k, Initial residual = 0.222388, Final residual = 2.47026e-09, No Iterations 3
bounding k, min: 0 max: 2.76585 average: 0.0956773
ExecutionTime = 0.86 s  ClockTime = 1 s

Courant Number mean: 0.101438 max: 0.186493
Time = 0.04

PIMPLE: Iteration 1
diagonal:  Solving for rho, Initial residual = 0, Final residual = 0, No Iterations 0
smoothSolver:  Solving for Ux, Initial residual = 0.194988, Final residual = 0.00022499, No Iterations 1
smoothSolver:  Solving for Uy, Initial residual = 0.136302, Final residual = 0.000192931, No Iterations 1
smoothSolver:  Solving for e, Initial residual = 0.06863, Final residual = 8.48147e-05, No Iterations 1
DICPCG:  Solving for p, Initial residual = 0.103681, Final residual = 4.18432e-07, No Iterations 62
diagonal:  Solving for rho, Initial residual = 0, Final residual = 0, No Iterations 0
time step continuity errors : sum local = 8.9259e-09, global = -1.74914e-10, cumulative = -8.97154e-09
PIMPLE: Iteration 2
smoothSolver:  Solving for Ux, Initial residual = 0.00189529, Final residual = 3.79466e-06, No Iterations 1
smoothSolver:  Solving for Uy, Initial residual = 0.00546223, Final residual = 1.04198e-05, No Iterations 1
smoothSolver:  Solving for e, Initial residual = 0.0170564, Final residual = 3.0223e-05, No Iterations 1
DICPCG:  Solving for p, Initial residual = 0.0133709, Final residual = 8.9635e-07, No Iterations 50
diagonal:  Solving for rho, Initial residual = 0, Final residual = 0, No Iterations 0
time step continuity errors : sum local = 1.87781e-08, global = -1.85611e-09, cumulative = -1.08276e-08
PIMPLE: Iteration 3
smoothSolver:  Solving for Ux, Initial residual = 0.000318743, Final residual = 6.12919e-07, No Iterations 1
smoothSolver:  Solving for Uy, Initial residual = 0.00153572, Final residual = 6.91178e-09, No Iterations 2
smoothSolver:  Solving for e, Initial residual = 0.0024692, Final residual = 9.8577e-09, No Iterations 2
DICPCG:  Solving for p, Initial residual = 0.00193542, Final residual = 9.67173e-07, No Iterations 41
diagonal:  Solving for rho, Initial residual = 0, Final residual = 0, No Iterations 0
time step continuity errors : sum local = 2.00939e-08, global = -9.45574e-10, cumulative = -1.17732e-08
smoothSolver:  Solving for k, Initial residual = 0.160086, Final residual = 7.27741e-07, No Iterations 2
bounding k, min: 0 max: 3.24311 average: 0.158132
ExecutionTime = 0.92 s  ClockTime = 2 s

Courant Number mean: 0.117311 max: 0.197265
Time = 0.045

PIMPLE: Iteration 1
diagonal:  Solving for rho, Initial residual = 0, Final residual = 0, No Iterations 0
smoothSolver:  Solving for Ux, Initial residual = 0.230782, Final residual = 0.000308009, No Iterations 1
smoothSolver:  Solving for Uy, Initial residual = 0.129315, Final residual = 0.000213611, No Iterations 1
smoothSolver:  Solving for e, Initial residual = 0.0606696, Final residual = 0.000109459, No Iterations 1
DICPCG:  Solving for p, Initial residual = 0.103745, Final residual = 8.70548e-07, No Iterations 60
diagonal:  Solving for rho, Initial residual = 0, Final residual = 0, No Iterations 0
time step continuity errors : sum local = 1.77491e-08, global = 1.75423e-09, cumulative = -1.0019e-08
PIMPLE: Iteration 2
smoothSolver:  Solving for Ux, Initial residual = 0.00241639, Final residual = 4.96262e-06, No Iterations 1
smoothSolver:  Solving for Uy, Initial residual = 0.00563622, Final residual = 1.15302e-05, No Iterations 1
smoothSolver:  Solving for e, Initial residual = 0.0129546, Final residual = 2.88747e-05, No Iterations 1
DICPCG:  Solving for p, Initial residual = 0.0117756, Final residual = 9.95806e-07, No Iterations 50
diagonal:  Solving for rho, Initial residual = 0, Final residual = 0, No Iterations 0
time step continuity errors : sum local = 1.9251e-08, global = 2.18429e-11, cumulative = -9.99715e-09
PIMPLE: Iteration 3
smoothSolver:  Solving for Ux, Initial residual = 0.000385887, Final residual = 7.67517e-07, No Iterations 1
smoothSolver:  Solving for Uy, Initial residual = 0.00155106, Final residual = 8.28775e-09, No Iterations 2
smoothSolver:  Solving for e, Initial residual = 0.00185813, Final residual = 1.10612e-08, No Iterations 2
DICPCG:  Solving for p, Initial residual = 0.00167504, Final residual = 8.98549e-07, No Iterations 38
diagonal:  Solving for rho, Initial residual = 0, Final residual = 0, No Iterations 0
time step continuity errors : sum local = 1.72447e-08, global = 2.93453e-09, cumulative = -7.06262e-09
smoothSolver:  Solving for k, Initial residual = 0.122796, Final residual = 5.54181e-07, No Iterations 2
bounding k, min: 0 max: 3.40398 average: 0.232292
ExecutionTime = 0.99 s  ClockTime = 2 s

Courant Number mean: 0.133109 max: 0.206646
Time = 0.05

PIMPLE: Iteration 1
diagonal:  Solving for rho, Initial residual = 0, Final residual = 0, No Iterations 0
smoothSolver:  Solving for Ux, Initial residual = 0.276251, Final residual = 0.000436608, No Iterations 1
smoothSolver:  Solving for Uy, Initial residual = 0.124571, Final residual = 0.000226059, No Iterations 1
smoothSolver:  Solving for e, Initial residual = 0.0547094, Final residual = 0.000140322, No Iterations 1
DICPCG:  Solving for p, Initial residual = 0.104401, Final residual = 6.66873e-07, No Iterations 62
diagonal:  Solving for rho, Initial residual = 0, Final residual = 0, No Iterations 0
time step continuity errors : sum local = 1.23995e-08, global = 7.46335e-10, cumulative = -6.31628e-09
PIMPLE: Iteration 2
smoothSolver:  Solving for Ux, Initial residual = 0.00340644, Final residual = 7.4557e-06, No Iterations 1
smoothSolver:  Solving for Uy, Initial residual = 0.00573737, Final residual = 1.25924e-05, No Iterations 1
smoothSolver:  Solving for e, Initial residual = 0.0104864, Final residual = 2.87226e-05, No Iterations 1
DICPCG:  Solving for p, Initial residual = 0.0113064, Final residual = 9.58591e-07, No Iterations 49
diagonal:  Solving for rho, Initial residual = 0, Final residual = 0, No Iterations 0
time step continuity errors : sum local = 1.64297e-08, global = -2.03504e-10, cumulative = -6.51979e-09
PIMPLE: Iteration 3
smoothSolver:  Solving for Ux, Initial residual = 0.000488191, Final residual = 2.67739e-09, No Iterations 2
smoothSolver:  Solving for Uy, Initial residual = 0.0017093, Final residual = 1.09554e-08, No Iterations 2
smoothSolver:  Solving for e, Initial residual = 0.00165169, Final residual = 1.27533e-08, No Iterations 2
DICPCG:  Solving for p, Initial residual = 0.0017545, Final residual = 8.74505e-07, No Iterations 41
diagonal:  Solving for rho, Initial residual = 0, Final residual = 0, No Iterations 0
time step continuity errors : sum local = 1.49229e-08, global = 1.85048e-09, cumulative = -4.6693e-09
smoothSolver:  Solving for k, Initial residual = 0.104605, Final residual = 5.6653e-07, No Iterations 2
bounding k, min: 0 max: 3.34515 average: 0.320278
ExecutionTime = 1.18 s  ClockTime = 2 s

Courant Number mean: 0.148622 max: 0.214181
Time = 0.055

PIMPLE: Iteration 1
diagonal:  Solving for rho, Initial residual = 0, Final residual = 0, No Iterations 0
smoothSolver:  Solving for Ux, Initial residual = 0.339832, Final residual = 0.000665201, No Iterations 1
smoothSolver:  Solving for Uy, Initial residual = 0.12478, Final residual = 0.000250725, No Iterations 1
smoothSolver:  Solving for e, Initial residual = 0.0494205, Final residual = 0.000174647, No Iterations 1
DICPCG:  Solving for p, Initial residual = 0.0961888, Final residual = 7.95739e-07, No Iterations 62
diagonal:  Solving for rho, Initial residual = 0, Final residual = 0, No Iterations 0
time step continuity errors : sum local = 1.30525e-08, global = 6.05485e-10, cumulative = -4.06382e-09
PIMPLE: Iteration 2
smoothSolver:  Solving for Ux, Initial residual = 0.00459699, Final residual = 1.13257e-05, No Iterations 1
smoothSolver:  Solving for Uy, Initial residual = 0.00574673, Final residual = 1.39526e-05, No Iterations 1
smoothSolver:  Solving for e, Initial residual = 0.0101705, Final residual = 3.24436e-05, No Iterations 1
DICPCG:  Solving for p, Initial residual = 0.0128637, Final residual = 9.55418e-07, No Iterations 51
diagonal:  Solving for rho, Initial residual = 0, Final residual = 0, No Iterations 0
time step continuity errors : sum local = 1.43095e-08, global = -1.05904e-09, cumulative = -5.12286e-09
PIMPLE: Iteration 3
smoothSolver:  Solving for Ux, Initial residual = 0.000665165, Final residual = 4.4877e-09, No Iterations 2
smoothSolver:  Solving for Uy, Initial residual = 0.00200245, Final residual = 1.5849e-08, No Iterations 2
smoothSolver:  Solving for e, Initial residual = 0.00169958, Final residual = 1.63242e-08, No Iterations 2
DICPCG:  Solving for p, Initial residual = 0.00211374, Final residual = 9.79494e-07, No Iterations 40
diagonal:  Solving for rho, Initial residual = 0, Final residual = 0, No Iterations 0
time step continuity errors : sum local = 1.46832e-08, global = 8.502e-10, cumulative = -4.27266e-09
smoothSolver:  Solving for k, Initial residual = 0.101701, Final residual = 7.05127e-07, No Iterations 2
bounding k, min: 0 max: 3.27567 average: 0.430001
ExecutionTime = 1.24 s  ClockTime = 2 s

Courant Number mean: 0.163577 max: 0.220601
Time = 0.06

PIMPLE: Iteration 1
diagonal:  Solving for rho, Initial residual = 0, Final residual = 0, No Iterations 0
smoothSolver:  Solving for Ux, Initial residual = 0.345598, Final residual = 0.000915696, No Iterations 1
smoothSolver:  Solving for Uy, Initial residual = 0.125049, Final residual = 0.00027867, No Iterations 1
smoothSolver:  Solving for e, Initial residual = 0.0436925, Final residual = 0.000210763, No Iterations 1
DICPCG:  Solving for p, Initial residual = 0.0727797, Final residual = 8.27288e-07, No Iterations 58
diagonal:  Solving for rho, Initial residual = 0, Final residual = 0, No Iterations 0
time step continuity errors : sum local = 1.18845e-08, global = 9.3089e-10, cumulative = -3.34177e-09
PIMPLE: Iteration 2
smoothSolver:  Solving for Ux, Initial residual = 0.00320738, Final residual = 9.34076e-06, No Iterations 1
smoothSolver:  Solving for Uy, Initial residual = 0.00656718, Final residual = 1.67517e-05, No Iterations 1
smoothSolver:  Solving for e, Initial residual = 0.0116563, Final residual = 4.48267e-05, No Iterations 1
DICPCG:  Solving for p, Initial residual = 0.0164277, Final residual = 8.33777e-07, No Iterations 51
diagonal:  Solving for rho, Initial residual = 0, Final residual = 0, No Iterations 0
time step continuity errors : sum local = 1.12158e-08, global = -1.08773e-09, cumulative = -4.4295e-09
PIMPLE: Iteration 3
smoothSolver:  Solving for Ux, Initial residual = 0.000604289, Final residual = 6.03068e-09, No Iterations 2
smoothSolver:  Solving for Uy, Initial residual = 0.00225907, Final residual = 2.69014e-08, No Iterations 2
smoothSolver:  Solving for e, Initial residual = 0.00172478, Final residual = 2.47212e-08, No Iterations 2
DICPCG:  Solving for p, Initial residual = 0.00238225, Final residual = 7.36645e-07, No Iterations 40
diagonal:  Solving for rho, Initial residual = 0, Final residual = 0, No Iterations 0
time step continuity errors : sum local = 9.96601e-09, global = 3.97782e-10, cumulative = -4.03172e-09
smoothSolver:  Solving for k, Initial residual = 0.108278, Final residual = 3.57943e-09, No Iterations 3
bounding k, min: 0 max: 3.79231 average: 0.57619
ExecutionTime = 1.32 s  ClockTime = 2 s

Courant Number mean: 0.177686 max: 0.227253
Time = 0.065

PIMPLE: Iteration 1
diagonal:  Solving for rho, Initial residual = 0, Final residual = 0, No Iterations 0
smoothSolver:  Solving for Ux, Initial residual = 0.254934, Final residual = 0.000996653, No Iterations 1
smoothSolver:  Solving for Uy, Initial residual = 0.112638, Final residual = 0.000283319, No Iterations 1
smoothSolver:  Solving for e, Initial residual = 0.0409743, Final residual = 0.000264945, No Iterations 1
DICPCG:  Solving for p, Initial residual = 0.0553791, Final residual = 9.07808e-07, No Iterations 58
diagonal:  Solving for rho, Initial residual = 0, Final residual = 0, No Iterations 0
time step continuity errors : sum local = 1.21617e-08, global = -4.38009e-10, cumulative = -4.46972e-09
PIMPLE: Iteration 2
smoothSolver:  Solving for Ux, Initial residual = 0.0019371, Final residual = 6.57647e-06, No Iterations 1
smoothSolver:  Solving for Uy, Initial residual = 0.00768373, Final residual = 2.21386e-05, No Iterations 1
smoothSolver:  Solving for e, Initial residual = 0.0113388, Final residual = 5.65668e-05, No Iterations 1
DICPCG:  Solving for p, Initial residual = 0.0159365, Final residual = 9.99325e-07, No Iterations 47
diagonal:  Solving for rho, Initial residual = 0, Final residual = 0, No Iterations 0
time step continuity errors : sum local = 1.32479e-08, global = -1.34012e-09, cumulative = -5.80984e-09
PIMPLE: Iteration 3
smoothSolver:  Solving for Ux, Initial residual = 0.000442468, Final residual = 8.54284e-09, No Iterations 2
smoothSolver:  Solving for Uy, Initial residual = 0.00224393, Final residual = 4.88828e-08, No Iterations 2
smoothSolver:  Solving for e, Initial residual = 0.00172527, Final residual = 4.44841e-08, No Iterations 2
DICPCG:  Solving for p, Initial residual = 0.00241485, Final residual = 9.91974e-07, No Iterations 40
diagonal:  Solving for rho, Initial residual = 0, Final residual = 0, No Iterations 0
time step continuity errors : sum local = 1.32517e-08, global = 1.15488e-09, cumulative = -4.65496e-09
smoothSolver:  Solving for k, Initial residual = 0.115854, Final residual = 9.59531e-09, No Iterations 3
bounding k, min: 0 max: 4.83182 average: 0.775133
ExecutionTime = 1.38 s  ClockTime = 2 s

Courant Number mean: 0.190733 max: 0.274641
Time = 0.07

PIMPLE: Iteration 1
diagonal:  Solving for rho, Initial residual = 0, Final residual = 0, No Iterations 0
smoothSolver:  Solving for Ux, Initial residual = 0.172804, Final residual = 0.0009925, No Iterations 1
smoothSolver:  Solving for Uy, Initial residual = 0.0935368, Final residual = 0.000268421, No Iterations 1
smoothSolver:  Solving for e, Initial residual = 0.0503778, Final residual = 0.000387142, No Iterations 1
DICPCG:  Solving for p, Initial residual = 0.0806281, Final residual = 8.29823e-07, No Iterations 56
diagonal:  Solving for rho, Initial residual = 0, Final residual = 0, No Iterations 0
time step continuity errors : sum local = 1.18211e-08, global = -6.71569e-12, cumulative = -4.66167e-09
PIMPLE: Iteration 2
smoothSolver:  Solving for Ux, Initial residual = 0.00215522, Final residual = 9.87642e-06, No Iterations 1
smoothSolver:  Solving for Uy, Initial residual = 0.00710686, Final residual = 2.43998e-05, No Iterations 1
smoothSolver:  Solving for e, Initial residual = 0.00878461, Final residual = 5.73087e-05, No Iterations 1
DICPCG:  Solving for p, Initial residual = 0.0103458, Final residual = 8.35708e-07, No Iterations 50
diagonal:  Solving for rho, Initial residual = 0, Final residual = 0, No Iterations 0
time step continuity errors : sum local = 1.26007e-08, global = -2.64271e-10, cumulative = -4.92594e-09
PIMPLE: Iteration 3
smoothSolver:  Solving for Ux, Initial residual = 0.000298144, Final residual = 9.60653e-09, No Iterations 2
smoothSolver:  Solving for Uy, Initial residual = 0.0020882, Final residual = 5.83701e-08, No Iterations 2
smoothSolver:  Solving for e, Initial residual = 0.00154134, Final residual = 5.79896e-08, No Iterations 2
DICPCG:  Solving for p, Initial residual = 0.00192886, Final residual = 8.23967e-07, No Iterations 40
diagonal:  Solving for rho, Initial residual = 0, Final residual = 0, No Iterations 0
time step continuity errors : sum local = 1.24755e-08, global = 1.42768e-09, cumulative = -3.49827e-09
smoothSolver:  Solving for k, Initial residual = 0.112346, Final residual = 1.52411e-08, No Iterations 3
bounding k, min: 0 max: 9.43775 average: 1.01701
ExecutionTime = 1.44 s  ClockTime = 2 s

Courant Number mean: 0.202695 max: 0.33249
Time = 0.075

PIMPLE: Iteration 1
diagonal:  Solving for rho, Initial residual = 0, Final residual = 0, No Iterations 0
smoothSolver:  Solving for Ux, Initial residual = 0.133477, Final residual = 0.000961024, No Iterations 1
smoothSolver:  Solving for Uy, Initial residual = 0.0955124, Final residual = 0.000315495, No Iterations 1
smoothSolver:  Solving for e, Initial residual = 0.0584275, Final residual = 0.00055211, No Iterations 1
DICPCG:  Solving for p, Initial residual = 0.0936683, Final residual = 6.39618e-07, No Iterations 60
diagonal:  Solving for rho, Initial residual = 0, Final residual = 0, No Iterations 0
time step continuity errors : sum local = 1.04145e-08, global = -4.45144e-10, cumulative = -3.94341e-09
PIMPLE: Iteration 2
smoothSolver:  Solving for Ux, Initial residual = 0.00231249, Final residual = 1.25754e-05, No Iterations 1
smoothSolver:  Solving for Uy, Initial residual = 0.00481456, Final residual = 2.55398e-05, No Iterations 1
smoothSolver:  Solving for e, Initial residual = 0.00555828, Final residual = 3.99494e-05, No Iterations 1
DICPCG:  Solving for p, Initial residual = 0.00576578, Final residual = 7.95395e-07, No Iterations 47
diagonal:  Solving for rho, Initial residual = 0, Final residual = 0, No Iterations 0
time step continuity errors : sum local = 1.3826e-08, global = -9.68032e-10, cumulative = -4.91144e-09
PIMPLE: Iteration 3
smoothSolver:  Solving for Ux, Initial residual = 0.000157621, Final residual = 7.42745e-07, No Iterations 1
smoothSolver:  Solving for Uy, Initial residual = 0.00268654, Final residual = 1.21858e-07, No Iterations 2
smoothSolver:  Solving for e, Initial residual = 0.00121375, Final residual = 7.60868e-08, No Iterations 2
DICPCG:  Solving for p, Initial residual = 0.00132967, Final residual = 7.99976e-07, No Iterations 38
diagonal:  Solving for rho, Initial residual = 0, Final residual = 0, No Iterations 0
time step continuity errors : sum local = 1.38783e-08, global = 1.31455e-09, cumulative = -3.59689e-09
smoothSolver:  Solving for k, Initial residual = 0.0897067, Final residual = 9.79247e-09, No Iterations 3
bounding k, min: 0 max: 13.668 average: 1.25607
ExecutionTime = 1.63 s  ClockTime = 2 s

Courant Number mean: 0.213919 max: 0.371909
Time = 0.08

PIMPLE: Iteration 1
diagonal:  Solving for rho, Initial residual = 0, Final residual = 0, No Iterations 0
smoothSolver:  Solving for Ux, Initial residual = 0.105301, Final residual = 0.000809803, No Iterations 1
smoothSolver:  Solving for Uy, Initial residual = 0.0933407, Final residual = 0.000362639, No Iterations 1
smoothSolver:  Solving for e, Initial residual = 0.0586319, Final residual = 8.10211e-06, No Iterations 2
DICPCG:  Solving for p, Initial residual = 0.0931611, Final residual = 6.5839e-07, No Iterations 60
diagonal:  Solving for rho, Initial residual = 0, Final residual = 0, No Iterations 0
time step continuity errors : sum local = 1.2019e-08, global = -5.1762e-10, cumulative = -4.11451e-09
PIMPLE: Iteration 2
smoothSolver:  Solving for Ux, Initial residual = 0.00199061, Final residual = 1.17207e-05, No Iterations 1
smoothSolver:  Solving for Uy, Initial residual = 0.00678402, Final residual = 3.93642e-05, No Iterations 1
smoothSolver:  Solving for e, Initial residual = 0.0060946, Final residual = 4.74361e-05, No Iterations 1
DICPCG:  Solving for p, Initial residual = 0.0066586, Final residual = 9.10149e-07, No Iterations 48
diagonal:  Solving for rho, Initial residual = 0, Final residual = 0, No Iterations 0
time step continuity errors : sum local = 1.73729e-08, global = -1.03728e-09, cumulative = -5.15179e-09
PIMPLE: Iteration 3
smoothSolver:  Solving for Ux, Initial residual = 0.000189585, Final residual = 9.77161e-07, No Iterations 1
smoothSolver:  Solving for Uy, Initial residual = 0.00185303, Final residual = 1.16048e-07, No Iterations 2
smoothSolver:  Solving for e, Initial residual = 0.000926637, Final residual = 9.31059e-08, No Iterations 2
DICPCG:  Solving for p, Initial residual = 0.000835606, Final residual = 8.44575e-07, No Iterations 35
diagonal:  Solving for rho, Initial residual = 0, Final residual = 0, No Iterations 0
time step continuity errors : sum local = 1.60303e-08, global = 2.29651e-09, cumulative = -2.85528e-09
smoothSolver:  Solving for k, Initial residual = 0.0612075, Final residual = 1.47342e-08, No Iterations 3
bounding k, min: 0 max: 14.85 average: 1.45999
ExecutionTime = 1.7 s  ClockTime = 2 s

Courant Number mean: 0.22493 max: 0.390239
Time = 0.085

PIMPLE: Iteration 1
diagonal:  Solving for rho, Initial residual = 0, Final residual = 0, No Iterations 0
smoothSolver:  Solving for Ux, Initial residual = 0.0910827, Final residual = 0.000663315, No Iterations 1
smoothSolver:  Solving for Uy, Initial residual = 0.076473, Final residual = 0.000322447, No Iterations 1
smoothSolver:  Solving for e, Initial residual = 0.0518225, Final residual = 1.01817e-05, No Iterations 2
DICPCG:  Solving for p, Initial residual = 0.0849728, Final residual = 9.08688e-07, No Iterations 58
diagonal:  Solving for rho, Initial residual = 0, Final residual = 0, No Iterations 0
time step continuity errors : sum local = 1.76013e-08, global = -2.99232e-10, cumulative = -3.15451e-09
PIMPLE: Iteration 2
smoothSolver:  Solving for Ux, Initial residual = 0.00119131, Final residual = 7.8516e-06, No Iterations 1
smoothSolver:  Solving for Uy, Initial residual = 0.00865524, Final residual = 5.53308e-05, No Iterations 1
smoothSolver:  Solving for e, Initial residual = 0.00819964, Final residual = 1.49248e-06, No Iterations 2
DICPCG:  Solving for p, Initial residual = 0.00818547, Final residual = 8.28621e-07, No Iterations 48
diagonal:  Solving for rho, Initial residual = 0, Final residual = 0, No Iterations 0
time step continuity errors : sum local = 1.62033e-08, global = -1.99148e-09, cumulative = -5.14598e-09
PIMPLE: Iteration 3
smoothSolver:  Solving for Ux, Initial residual = 0.000249207, Final residual = 1.29354e-08, No Iterations 2
smoothSolver:  Solving for Uy, Initial residual = 0.00222133, Final residual = 1.39519e-07, No Iterations 2
smoothSolver:  Solving for e, Initial residual = 0.00113993, Final residual = 2.40188e-07, No Iterations 2
DICPCG:  Solving for p, Initial residual = 0.000939371, Final residual = 9.06464e-07, No Iterations 36
diagonal:  Solving for rho, Initial residual = 0, Final residual = 0, No Iterations 0
time step continuity errors : sum local = 1.76031e-08, global = 2.37275e-09, cumulative = -2.77323e-09
smoothSolver:  Solving for k, Initial residual = 0.0629574, Final residual = 1.47252e-08, No Iterations 3
bounding k, min: 0 max: 13.4139 average: 1.63769
ExecutionTime = 1.77 s  ClockTime = 2 s

Courant Number mean: 0.235768 max: 0.392711
Time = 0.09

PIMPLE: Iteration 1
diagonal:  Solving for rho, Initial residual = 0, Final residual = 0, No Iterations 0
smoothSolver:  Solving for Ux, Initial residual = 0.0820707, Final residual = 0.00063679, No Iterations 1
smoothSolver:  Solving for Uy, Initial residual = 0.058454, Final residual = 0.00024305, No Iterations 1
smoothSolver:  Solving for e, Initial residual = 0.0434237, Final residual = 9.95162e-06, No Iterations 2
DICPCG:  Solving for p, Initial residual = 0.0768798, Final residual = 8.19679e-07, No Iterations 53
diagonal:  Solving for rho, Initial residual = 0, Final residual = 0, No Iterations 0
time step continuity errors : sum local = 1.57828e-08, global = 3.56824e-10, cumulative = -2.41641e-09
PIMPLE: Iteration 2
smoothSolver:  Solving for Ux, Initial residual = 0.00118165, Final residual = 7.69112e-06, No Iterations 1
smoothSolver:  Solving for Uy, Initial residual = 0.00677374, Final residual = 4.29109e-05, No Iterations 1
smoothSolver:  Solving for e, Initial residual = 0.00747282, Final residual = 1.86075e-06, No Iterations 2
DICPCG:  Solving for p, Initial residual = 0.00749136, Final residual = 8.71068e-07, No Iterations 45
diagonal:  Solving for rho, Initial residual = 0, Final residual = 0, No Iterations 0
time step continuity errors : sum local = 1.62896e-08, global = -2.43278e-09, cumulative = -4.84918e-09
PIMPLE: Iteration 3
smoothSolver:  Solving for Ux, Initial residual = 0.000218663, Final residual = 1.47719e-08, No Iterations 2
smoothSolver:  Solving for Uy, Initial residual = 0.00191019, Final residual = 1.49357e-07, No Iterations 2
smoothSolver:  Solving for e, Initial residual = 0.00102757, Final residual = 2.80742e-07, No Iterations 2
DICPCG:  Solving for p, Initial residual = 0.000931175, Final residual = 9.28658e-07, No Iterations 37
diagonal:  Solving for rho, Initial residual = 0, Final residual = 0, No Iterations 0
time step continuity errors : sum local = 1.72564e-08, global = 2.18923e-09, cumulative = -2.65995e-09
smoothSolver:  Solving for k, Initial residual = 0.0705705, Final residual = 1.58929e-08, No Iterations 3
bounding k, min: 0 max: 11.1307 average: 1.81096
ExecutionTime = 1.83 s  ClockTime = 3 s

Courant Number mean: 0.246179 max: 0.389375
Time = 0.095

PIMPLE: Iteration 1
diagonal:  Solving for rho, Initial residual = 0, Final residual = 0, No Iterations 0
smoothSolver:  Solving for Ux, Initial residual = 0.0725134, Final residual = 0.000607263, No Iterations 1
smoothSolver:  Solving for Uy, Initial residual = 0.0587376, Final residual = 0.000300586, No Iterations 1
smoothSolver:  Solving for e, Initial residual = 0.0363877, Final residual = 9.26512e-06, No Iterations 2
DICPCG:  Solving for p, Initial residual = 0.0914074, Final residual = 6.23456e-07, No Iterations 56
diagonal:  Solving for rho, Initial residual = 0, Final residual = 0, No Iterations 0
time step continuity errors : sum local = 1.12061e-08, global = 9.57985e-10, cumulative = -1.70197e-09
PIMPLE: Iteration 2
smoothSolver:  Solving for Ux, Initial residual = 0.00161729, Final residual = 1.20327e-05, No Iterations 1
smoothSolver:  Solving for Uy, Initial residual = 0.00436914, Final residual = 2.39737e-05, No Iterations 1
smoothSolver:  Solving for e, Initial residual = 0.00565619, Final residual = 1.5126e-06, No Iterations 2
DICPCG:  Solving for p, Initial residual = 0.00623991, Final residual = 9.73208e-07, No Iterations 42
diagonal:  Solving for rho, Initial residual = 0, Final residual = 0, No Iterations 0
time step continuity errors : sum local = 1.63584e-08, global = -2.01664e-09, cumulative = -3.71861e-09
PIMPLE: Iteration 3
smoothSolver:  Solving for Ux, Initial residual = 0.000120224, Final residual = 8.78286e-07, No Iterations 1
smoothSolver:  Solving for Uy, Initial residual = 0.00143107, Final residual = 1.16779e-07, No Iterations 2
smoothSolver:  Solving for e, Initial residual = 0.000777264, Final residual = 2.43268e-07, No Iterations 2
DICPCG:  Solving for p, Initial residual = 0.000837951, Final residual = 9.30259e-07, No Iterations 37
diagonal:  Solving for rho, Initial residual = 0, Final residual = 0, No Iterations 0
time step continuity errors : sum local = 1.5554e-08, global = 1.6436e-09, cumulative = -2.07501e-09
smoothSolver:  Solving for k, Initial residual = 0.0652444, Final residual = 1.79714e-08, No Iterations 3
bounding k, min: 0 max: 9.83957 average: 1.98787
ExecutionTime = 1.9 s  ClockTime = 3 s

Courant Number mean: 0.255727 max: 0.390294
Time = 0.1

PIMPLE: Iteration 1
diagonal:  Solving for rho, Initial residual = 0, Final residual = 0, No Iterations 0
smoothSolver:  Solving for Ux, Initial residual = 0.0612365, Final residual = 0.000534838, No Iterations 1
smoothSolver:  Solving for Uy, Initial residual = 0.0603885, Final residual = 0.000358419, No Iterations 1
smoothSolver:  Solving for e, Initial residual = 0.0337857, Final residual = 8.81825e-06, No Iterations 2
DICPCG:  Solving for p, Initial residual = 0.116192, Final residual = 4.84211e-07, No Iterations 56
diagonal:  Solving for rho, Initial residual = 0, Final residual = 0, No Iterations 0
time step continuity errors : sum local = 7.66629e-09, global = 1.0202e-09, cumulative = -1.05481e-09
PIMPLE: Iteration 2
smoothSolver:  Solving for Ux, Initial residual = 0.00185935, Final residual = 1.48866e-05, No Iterations 1
smoothSolver:  Solving for Uy, Initial residual = 0.00451677, Final residual = 3.22091e-05, No Iterations 1
smoothSolver:  Solving for e, Initial residual = 0.00436276, Final residual = 9.64113e-07, No Iterations 2
DICPCG:  Solving for p, Initial residual = 0.00646053, Final residual = 8.59988e-07, No Iterations 45
diagonal:  Solving for rho, Initial residual = 0, Final residual = 0, No Iterations 0
time step continuity errors : sum local = 1.22271e-08, global = -6.00529e-10, cumulative = -1.65534e-09
PIMPLE: Iteration 3
smoothSolver:  Solving for Ux, Initial residual = 0.000136596, Final residual = 1.0729e-08, No Iterations 2
smoothSolver:  Solving for Uy, Initial residual = 0.00153828, Final residual = 1.39698e-07, No Iterations 2
smoothSolver:  Solving for e, Initial residual = 0.000617318, Final residual = 1.95464e-07, No Iterations 2
DICPCG:  Solving for p, Initial residual = 0.000858686, Final residual = 9.03168e-07, No Iterations 35
diagonal:  Solving for rho, Initial residual = 0, Final residual = 0, No Iterations 0
time step continuity errors : sum local = 1.27865e-08, global = 1.92898e-09, cumulative = 2.73645e-10
smoothSolver:  Solving for k, Initial residual = 0.0560983, Final residual = 1.66014e-08, No Iterations 3
bounding k, min: 0 max: 9.57814 average: 2.16265
ExecutionTime = 2.08 s  ClockTime = 3 s

Courant Number mean: 0.263942 max: 0.398465
Time = 0.105

PIMPLE: Iteration 1
diagonal:  Solving for rho, Initial residual = 0, Final residual = 0, No Iterations 0
smoothSolver:  Solving for Ux, Initial residual = 0.0530487, Final residual = 0.000472087, No Iterations 1
smoothSolver:  Solving for Uy, Initial residual = 0.0560436, Final residual = 0.000364726, No Iterations 1
smoothSolver:  Solving for e, Initial residual = 0.0304309, Final residual = 8.1342e-06, No Iterations 2
DICPCG:  Solving for p, Initial residual = 0.136573, Final residual = 4.06439e-07, No Iterations 56
diagonal:  Solving for rho, Initial residual = 0, Final residual = 0, No Iterations 0
time step continuity errors : sum local = 5.35249e-09, global = -6.83739e-10, cumulative = -4.10094e-10
PIMPLE: Iteration 2
smoothSolver:  Solving for Ux, Initial residual = 0.0016003, Final residual = 1.30566e-05, No Iterations 1
smoothSolver:  Solving for Uy, Initial residual = 0.00571428, Final residual = 4.35242e-05, No Iterations 1
smoothSolver:  Solving for e, Initial residual = 0.00475194, Final residual = 9.20354e-07, No Iterations 2
DICPCG:  Solving for p, Initial residual = 0.00961994, Final residual = 7.90468e-07, No Iterations 44
diagonal:  Solving for rho, Initial residual = 0, Final residual = 0, No Iterations 0
time step continuity errors : sum local = 8.88192e-09, global = -1.60424e-09, cumulative = -2.01433e-09
PIMPLE: Iteration 3
smoothSolver:  Solving for Ux, Initial residual = 0.000202721, Final residual = 1.92236e-08, No Iterations 2
smoothSolver:  Solving for Uy, Initial residual = 0.00180995, Final residual = 1.94178e-07, No Iterations 2
smoothSolver:  Solving for e, Initial residual = 0.000550686, Final residual = 1.55232e-07, No Iterations 2
DICPCG:  Solving for p, Initial residual = 0.00112322, Final residual = 9.196e-07, No Iterations 36
diagonal:  Solving for rho, Initial residual = 0, Final residual = 0, No Iterations 0
time step continuity errors : sum local = 1.02956e-08, global = 1.34681e-09, cumulative = -6.67516e-10
smoothSolver:  Solving for k, Initial residual = 0.0502652, Final residual = 1.6527e-08, No Iterations 3
bounding k, min: 0 max: 9.12494 average: 2.32564
ExecutionTime = 2.15 s  ClockTime = 3 s

Courant Number mean: 0.270349 max: 0.411737
Time = 0.11

PIMPLE: Iteration 1
diagonal:  Solving for rho, Initial residual = 0, Final residual = 0, No Iterations 0
smoothSolver:  Solving for Ux, Initial residual = 0.0448682, Final residual = 0.000415587, No Iterations 1
smoothSolver:  Solving for Uy, Initial residual = 0.0488848, Final residual = 0.000338024, No Iterations 1
smoothSolver:  Solving for e, Initial residual = 0.0264357, Final residual = 7.23328e-06, No Iterations 2
DICPCG:  Solving for p, Initial residual = 0.159904, Final residual = 9.11475e-07, No Iterations 58
diagonal:  Solving for rho, Initial residual = 0, Final residual = 0, No Iterations 0
time step continuity errors : sum local = 9.33394e-09, global = -1.57191e-10, cumulative = -8.24707e-10
PIMPLE: Iteration 2
smoothSolver:  Solving for Ux, Initial residual = 0.00130081, Final residual = 1.01409e-05, No Iterations 1
smoothSolver:  Solving for Uy, Initial residual = 0.00542691, Final residual = 4.27711e-05, No Iterations 1
smoothSolver:  Solving for e, Initial residual = 0.00449605, Final residual = 9.68747e-07, No Iterations 2
DICPCG:  Solving for p, Initial residual = 0.012425, Final residual = 7.02124e-07, No Iterations 47
diagonal:  Solving for rho, Initial residual = 0, Final residual = 0, No Iterations 0
time step continuity errors : sum local = 5.66263e-09, global = -9.0045e-10, cumulative = -1.72516e-09
PIMPLE: Iteration 3
smoothSolver:  Solving for Ux, Initial residual = 0.000193513, Final residual = 1.88876e-08, No Iterations 2
smoothSolver:  Solving for Uy, Initial residual = 0.00168121, Final residual = 1.85564e-07, No Iterations 2
smoothSolver:  Solving for e, Initial residual = 0.000548689, Final residual = 1.30921e-07, No Iterations 2
DICPCG:  Solving for p, Initial residual = 0.00170763, Final residual = 9.1116e-07, No Iterations 39
diagonal:  Solving for rho, Initial residual = 0, Final residual = 0, No Iterations 0
time step continuity errors : sum local = 7.32537e-09, global = 2.47142e-10, cumulative = -1.47801e-09
smoothSolver:  Solving for k, Initial residual = 0.0456599, Final residual = 1.73985e-08, No Iterations 3
bounding k, min: 0 max: 8.52823 average: 2.46871
ExecutionTime = 2.21 s  ClockTime = 3 s

Courant Number mean: 0.274508 max: 0.427523
Time = 0.115

PIMPLE: Iteration 1
diagonal:  Solving for rho, Initial residual = 0, Final residual = 0, No Iterations 0
smoothSolver:  Solving for Ux, Initial residual = 0.0354748, Final residual = 0.000342875, No Iterations 1
smoothSolver:  Solving for Uy, Initial residual = 0.0446317, Final residual = 0.000321919, No Iterations 1
smoothSolver:  Solving for e, Initial residual = 0.0229863, Final residual = 6.43956e-06, No Iterations 2
DICPCG:  Solving for p, Initial residual = 0.221195, Final residual = 8.15057e-07, No Iterations 60
diagonal:  Solving for rho, Initial residual = 0, Final residual = 0, No Iterations 0
time step continuity errors : sum local = 5.88908e-09, global = -1.90358e-10, cumulative = -1.66837e-09
PIMPLE: Iteration 2
smoothSolver:  Solving for Ux, Initial residual = 0.00154591, Final residual = 1.15284e-05, No Iterations 1
smoothSolver:  Solving for Uy, Initial residual = 0.0043045, Final residual = 3.46457e-05, No Iterations 1
smoothSolver:  Solving for e, Initial residual = 0.00347734, Final residual = 7.51523e-07, No Iterations 2
DICPCG:  Solving for p, Initial residual = 0.015817, Final residual = 9.92192e-07, No Iterations 46
diagonal:  Solving for rho, Initial residual = 0, Final residual = 0, No Iterations 0
time step continuity errors : sum local = 4.79443e-09, global = -1.20245e-10, cumulative = -1.78862e-09
PIMPLE: Iteration 3
smoothSolver:  Solving for Ux, Initial residual = 0.000145847, Final residual = 1.40851e-08, No Iterations 2
smoothSolver:  Solving for Uy, Initial residual = 0.00146261, Final residual = 1.52125e-07, No Iterations 2
smoothSolver:  Solving for e, Initial residual = 0.000521571, Final residual = 1.15994e-07, No Iterations 2
DICPCG:  Solving for p, Initial residual = 0.00272817, Final residual = 9.18149e-07, No Iterations 41
diagonal:  Solving for rho, Initial residual = 0, Final residual = 0, No Iterations 0
time step continuity errors : sum local = 4.42998e-09, global = -6.80532e-12, cumulative = -1.79542e-09
smoothSolver:  Solving for k, Initial residual = 0.0413536, Final residual = 1.89368e-08, No Iterations 3
bounding k, min: 0 max: 8.32707 average: 2.58533
ExecutionTime = 2.28 s  ClockTime = 3 s

Courant Number mean: 0.276062 max: 0.441375
Time = 0.12

PIMPLE: Iteration 1
diagonal:  Solving for rho, Initial residual = 0, Final residual = 0, No Iterations 0
smoothSolver:  Solving for Ux, Initial residual = 0.0254727, Final residual = 2.90059e-06, No Iterations 2
smoothSolver:  Solving for Uy, Initial residual = 0.0414009, Final residual = 0.00030521, No Iterations 1
smoothSolver:  Solving for e, Initial residual = 0.0212199, Final residual = 5.93135e-06, No Iterations 2
DICPCG:  Solving for p, Initial residual = 0.345043, Final residual = 8.07074e-07, No Iterations 64
diagonal:  Solving for rho, Initial residual = 0, Final residual = 0, No Iterations 0
time step continuity errors : sum local = 3.68748e-09, global = -1.88034e-10, cumulative = -1.98346e-09
PIMPLE: Iteration 2
smoothSolver:  Solving for Ux, Initial residual = 0.00165102, Final residual = 1.19594e-05, No Iterations 1
smoothSolver:  Solving for Uy, Initial residual = 0.00362733, Final residual = 2.92502e-05, No Iterations 1
smoothSolver:  Solving for e, Initial residual = 0.00234921, Final residual = 5.27883e-07, No Iterations 2
DICPCG:  Solving for p, Initial residual = 0.0221479, Final residual = 5.90316e-07, No Iterations 54
diagonal:  Solving for rho, Initial residual = 0, Final residual = 0, No Iterations 0
time step continuity errors : sum local = 1.45624e-09, global = 2.62016e-10, cumulative = -1.72144e-09
PIMPLE: Iteration 3
smoothSolver:  Solving for Ux, Initial residual = 0.000114251, Final residual = 9.71313e-07, No Iterations 1
smoothSolver:  Solving for Uy, Initial residual = 0.00135713, Final residual = 1.4667e-07, No Iterations 2
smoothSolver:  Solving for e, Initial residual = 0.000455072, Final residual = 1.01648e-07, No Iterations 2
DICPCG:  Solving for p, Initial residual = 0.00479014, Final residual = 8.76595e-07, No Iterations 45
diagonal:  Solving for rho, Initial residual = 0, Final residual = 0, No Iterations 0
time step continuity errors : sum local = 2.1443e-09, global = -6.25985e-11, cumulative = -1.78404e-09
smoothSolver:  Solving for k, Initial residual = 0.0370604, Final residual = 2.08361e-08, No Iterations 3
bounding k, min: 0 max: 8.30235 average: 2.67017
ExecutionTime = 2.34 s  ClockTime = 3 s

Courant Number mean: 0.274808 max: 0.451323
Time = 0.125

PIMPLE: Iteration 1
diagonal:  Solving for rho, Initial residual = 0, Final residual = 0, No Iterations 0
smoothSolver:  Solving for Ux, Initial residual = 0.0213528, Final residual = 2.53671e-06, No Iterations 2
smoothSolver:  Solving for Uy, Initial residual = 0.0356294, Final residual = 0.00026971, No Iterations 1
smoothSolver:  Solving for e, Initial residual = 0.0197962, Final residual = 5.40783e-06, No Iterations 2
DICPCG:  Solving for p, Initial residual = 0.47296, Final residual = 8.99222e-07, No Iterations 64
diagonal:  Solving for rho, Initial residual = 0, Final residual = 0, No Iterations 0
time step continuity errors : sum local = 2.98542e-09, global = -3.52406e-11, cumulative = -1.81928e-09
PIMPLE: Iteration 2
smoothSolver:  Solving for Ux, Initial residual = 0.00152232, Final residual = 1.08151e-05, No Iterations 1
smoothSolver:  Solving for Uy, Initial residual = 0.00382448, Final residual = 2.97246e-05, No Iterations 1
smoothSolver:  Solving for e, Initial residual = 0.00233956, Final residual = 5.25913e-07, No Iterations 2
DICPCG:  Solving for p, Initial residual = 0.0235127, Final residual = 6.52464e-07, No Iterations 54
diagonal:  Solving for rho, Initial residual = 0, Final residual = 0, No Iterations 0
time step continuity errors : sum local = 1.80059e-09, global = 1.32993e-10, cumulative = -1.68629e-09
PIMPLE: Iteration 3
smoothSolver:  Solving for Ux, Initial residual = 0.000118582, Final residual = 1.2743e-08, No Iterations 2
smoothSolver:  Solving for Uy, Initial residual = 0.00126772, Final residual = 1.42513e-07, No Iterations 2
smoothSolver:  Solving for e, Initial residual = 0.000383033, Final residual = 8.78849e-08, No Iterations 2
DICPCG:  Solving for p, Initial residual = 0.00382521, Final residual = 7.90193e-07, No Iterations 45
diagonal:  Solving for rho, Initial residual = 0, Final residual = 0, No Iterations 0
time step continuity errors : sum local = 2.13467e-09, global = -2.69483e-10, cumulative = -1.95577e-09
smoothSolver:  Solving for k, Initial residual = 0.0356577, Final residual = 2.28715e-08, No Iterations 3
bounding k, min: 0 max: 8.31148 average: 2.72021
ExecutionTime = 2.54 s  ClockTime = 3 s

Courant Number mean: 0.270765 max: 0.457612
Time = 0.13

PIMPLE: Iteration 1
diagonal:  Solving for rho, Initial residual = 0, Final residual = 0, No Iterations 0
smoothSolver:  Solving for Ux, Initial residual = 0.0283583, Final residual = 0.00024381, No Iterations 1
smoothSolver:  Solving for Uy, Initial residual = 0.0280509, Final residual = 0.000223766, No Iterations 1
smoothSolver:  Solving for e, Initial residual = 0.0182346, Final residual = 4.86416e-06, No Iterations 2
DICPCG:  Solving for p, Initial residual = 0.439645, Final residual = 8.86774e-07, No Iterations 62
diagonal:  Solving for rho, Initial residual = 0, Final residual = 0, No Iterations 0
time step continuity errors : sum local = 3.12572e-09, global = -4.2356e-10, cumulative = -2.37933e-09
PIMPLE: Iteration 2
smoothSolver:  Solving for Ux, Initial residual = 0.00127143, Final residual = 9.36677e-06, No Iterations 1
smoothSolver:  Solving for Uy, Initial residual = 0.00392373, Final residual = 2.89835e-05, No Iterations 1
smoothSolver:  Solving for e, Initial residual = 0.00287739, Final residual = 5.58356e-07, No Iterations 2
DICPCG:  Solving for p, Initial residual = 0.0224481, Final residual = 8.57117e-07, No Iterations 53
diagonal:  Solving for rho, Initial residual = 0, Final residual = 0, No Iterations 0
time step continuity errors : sum local = 3.06402e-09, global = 3.37216e-10, cumulative = -2.04211e-09
PIMPLE: Iteration 3
smoothSolver:  Solving for Ux, Initial residual = 0.000143657, Final residual = 1.26531e-08, No Iterations 2
smoothSolver:  Solving for Uy, Initial residual = 0.00111918, Final residual = 1.28193e-07, No Iterations 2
smoothSolver:  Solving for e, Initial residual = 0.000306934, Final residual = 7.24179e-08, No Iterations 2
DICPCG:  Solving for p, Initial residual = 0.00242196, Final residual = 8.83969e-07, No Iterations 41
diagonal:  Solving for rho, Initial residual = 0, Final residual = 0, No Iterations 0
time step continuity errors : sum local = 3.10027e-09, global = -2.79466e-10, cumulative = -2.32158e-09
smoothSolver:  Solving for k, Initial residual = 0.0371296, Final residual = 2.38083e-08, No Iterations 3
bounding k, min: 0 max: 8.29732 average: 2.73593
ExecutionTime = 2.6 s  ClockTime = 3 s

Courant Number mean: 0.264243 max: 0.461255
Time = 0.135

PIMPLE: Iteration 1
diagonal:  Solving for rho, Initial residual = 0, Final residual = 0, No Iterations 0
smoothSolver:  Solving for Ux, Initial residual = 0.0360795, Final residual = 0.000274287, No Iterations 1
smoothSolver:  Solving for Uy, Initial residual = 0.0215382, Final residual = 0.000179091, No Iterations 1
smoothSolver:  Solving for e, Initial residual = 0.0168366, Final residual = 4.38217e-06, No Iterations 2
DICPCG:  Solving for p, Initial residual = 0.397726, Final residual = 9.27989e-07, No Iterations 62
diagonal:  Solving for rho, Initial residual = 0, Final residual = 0, No Iterations 0
time step continuity errors : sum local = 3.52364e-09, global = 4.67802e-11, cumulative = -2.2748e-09
PIMPLE: Iteration 2
smoothSolver:  Solving for Ux, Initial residual = 0.000962957, Final residual = 7.87794e-06, No Iterations 1
smoothSolver:  Solving for Uy, Initial residual = 0.00335121, Final residual = 2.27567e-05, No Iterations 1
smoothSolver:  Solving for e, Initial residual = 0.00305118, Final residual = 2.92803e-05, No Iterations 1
DICPCG:  Solving for p, Initial residual = 0.0165525, Final residual = 9.80241e-07, No Iterations 52
diagonal:  Solving for rho, Initial residual = 0, Final residual = 0, No Iterations 0
time step continuity errors : sum local = 4.90337e-09, global = 4.55991e-10, cumulative = -1.81881e-09
PIMPLE: Iteration 3
smoothSolver:  Solving for Ux, Initial residual = 0.000146077, Final residual = 1.07494e-08, No Iterations 2
smoothSolver:  Solving for Uy, Initial residual = 0.000909816, Final residual = 1.06952e-07, No Iterations 2
smoothSolver:  Solving for e, Initial residual = 0.000268007, Final residual = 5.8623e-08, No Iterations 2
DICPCG:  Solving for p, Initial residual = 0.00155718, Final residual = 9.30758e-07, No Iterations 39
diagonal:  Solving for rho, Initial residual = 0, Final residual = 0, No Iterations 0
time step continuity errors : sum local = 4.58362e-09, global = 5.43498e-10, cumulative = -1.27531e-09
smoothSolver:  Solving for k, Initial residual = 0.0387941, Final residual = 2.20474e-08, No Iterations 3
bounding k, min: 0 max: 8.22518 average: 2.72104
ExecutionTime = 2.66 s  ClockTime = 3 s

Courant Number mean: 0.255826 max: 0.462945
Time = 0.14

PIMPLE: Iteration 1
diagonal:  Solving for rho, Initial residual = 0, Final residual = 0, No Iterations 0
smoothSolver:  Solving for Ux, Initial residual = 0.0408923, Final residual = 0.000282693, No Iterations 1
smoothSolver:  Solving for Uy, Initial residual = 0.0197957, Final residual = 0.000159423, No Iterations 1
smoothSolver:  Solving for e, Initial residual = 0.015692, Final residual = 3.90882e-06, No Iterations 2
DICPCG:  Solving for p, Initial residual = 0.292616, Final residual = 6.23309e-07, No Iterations 58
diagonal:  Solving for rho, Initial residual = 0, Final residual = 0, No Iterations 0
time step continuity errors : sum local = 3.10526e-09, global = 5.10329e-11, cumulative = -1.22428e-09
PIMPLE: Iteration 2
smoothSolver:  Solving for Ux, Initial residual = 0.000833533, Final residual = 7.82529e-06, No Iterations 1
smoothSolver:  Solving for Uy, Initial residual = 0.002464, Final residual = 1.55713e-05, No Iterations 1
smoothSolver:  Solving for e, Initial residual = 0.00266593, Final residual = 2.3137e-05, No Iterations 1
DICPCG:  Solving for p, Initial residual = 0.0123609, Final residual = 7.57109e-07, No Iterations 52
diagonal:  Solving for rho, Initial residual = 0, Final residual = 0, No Iterations 0
time step continuity errors : sum local = 4.41322e-09, global = 5.554e-10, cumulative = -6.68878e-10
PIMPLE: Iteration 3
smoothSolver:  Solving for Ux, Initial residual = 0.000123895, Final residual = 8.2527e-07, No Iterations 1
smoothSolver:  Solving for Uy, Initial residual = 0.000768012, Final residual = 9.47092e-08, No Iterations 2
smoothSolver:  Solving for e, Initial residual = 0.000262462, Final residual = 5.08291e-08, No Iterations 2
DICPCG:  Solving for p, Initial residual = 0.00136861, Final residual = 9.0173e-07, No Iterations 39
diagonal:  Solving for rho, Initial residual = 0, Final residual = 0, No Iterations 0
time step continuity errors : sum local = 5.19523e-09, global = 5.87634e-10, cumulative = -8.12438e-11
smoothSolver:  Solving for k, Initial residual = 0.0412439, Final residual = 1.88202e-08, No Iterations 3
bounding k, min: 0 max: 8.08377 average: 2.68065
ExecutionTime = 2.73 s  ClockTime = 3 s

Courant Number mean: 0.246265 max: 0.462671
Time = 0.145

PIMPLE: Iteration 1
diagonal:  Solving for rho, Initial residual = 0, Final residual = 0, No Iterations 0
smoothSolver:  Solving for Ux, Initial residual = 0.0443215, Final residual = 0.000289479, No Iterations 1
smoothSolver:  Solving for Uy, Initial residual = 0.0210665, Final residual = 0.000149865, No Iterations 1
smoothSolver:  Solving for e, Initial residual = 0.0149255, Final residual = 3.42686e-06, No Iterations 2
DICPCG:  Solving for p, Initial residual = 0.23409, Final residual = 9.648e-07, No Iterations 57
diagonal:  Solving for rho, Initial residual = 0, Final residual = 0, No Iterations 0
time step continuity errors : sum local = 5.72654e-09, global = 7.553e-12, cumulative = -7.36908e-11
PIMPLE: Iteration 2
smoothSolver:  Solving for Ux, Initial residual = 0.00131411, Final residual = 1.06161e-05, No Iterations 1
smoothSolver:  Solving for Uy, Initial residual = 0.00148856, Final residual = 9.74715e-06, No Iterations 1
smoothSolver:  Solving for e, Initial residual = 0.00189108, Final residual = 1.51303e-05, No Iterations 1
DICPCG:  Solving for p, Initial residual = 0.00816684, Final residual = 9.2769e-07, No Iterations 48
diagonal:  Solving for rho, Initial residual = 0, Final residual = 0, No Iterations 0
time step continuity errors : sum local = 5.8193e-09, global = 5.08279e-10, cumulative = 4.34588e-10
PIMPLE: Iteration 3
smoothSolver:  Solving for Ux, Initial residual = 8.20734e-05, Final residual = 5.32351e-07, No Iterations 1
smoothSolver:  Solving for Uy, Initial residual = 0.000649498, Final residual = 8.28191e-08, No Iterations 2
smoothSolver:  Solving for e, Initial residual = 0.000255238, Final residual = 4.87934e-08, No Iterations 2
DICPCG:  Solving for p, Initial residual = 0.0012187, Final residual = 7.31415e-07, No Iterations 39
diagonal:  Solving for rho, Initial residual = 0, Final residual = 0, No Iterations 0
time step continuity errors : sum local = 4.55427e-09, global = 5.29251e-10, cumulative = 9.63839e-10
smoothSolver:  Solving for k, Initial residual = 0.0434296, Final residual = 1.63502e-08, No Iterations 3
bounding k, min: 0 max: 7.8744 average: 2.61969
ExecutionTime = 2.8 s  ClockTime = 4 s

Courant Number mean: 0.23631 max: 0.459884
Time = 0.15

PIMPLE: Iteration 1
diagonal:  Solving for rho, Initial residual = 0, Final residual = 0, No Iterations 0
smoothSolver:  Solving for Ux, Initial residual = 0.0457579, Final residual = 0.000303627, No Iterations 1
smoothSolver:  Solving for Uy, Initial residual = 0.0208571, Final residual = 0.000138378, No Iterations 1
smoothSolver:  Solving for e, Initial residual = 0.0143882, Final residual = 2.98677e-06, No Iterations 2
DICPCG:  Solving for p, Initial residual = 0.196203, Final residual = 8.46673e-07, No Iterations 52
diagonal:  Solving for rho, Initial residual = 0, Final residual = 0, No Iterations 0
time step continuity errors : sum local = 5.6046e-09, global = 6.75065e-11, cumulative = 1.03135e-09
PIMPLE: Iteration 2
smoothSolver:  Solving for Ux, Initial residual = 0.00157594, Final residual = 1.15613e-05, No Iterations 1
smoothSolver:  Solving for Uy, Initial residual = 0.00134457, Final residual = 9.70091e-06, No Iterations 1
smoothSolver:  Solving for e, Initial residual = 0.00135744, Final residual = 1.29843e-05, No Iterations 1
DICPCG:  Solving for p, Initial residual = 0.00678844, Final residual = 9.32451e-07, No Iterations 46
diagonal:  Solving for rho, Initial residual = 0, Final residual = 0, No Iterations 0
time step continuity errors : sum local = 6.35038e-09, global = 2.96785e-10, cumulative = 1.32813e-09
PIMPLE: Iteration 3
smoothSolver:  Solving for Ux, Initial residual = 6.30684e-05, Final residual = 4.96129e-07, No Iterations 1
smoothSolver:  Solving for Uy, Initial residual = 0.000605459, Final residual = 7.29444e-08, No Iterations 2
smoothSolver:  Solving for e, Initial residual = 0.00021464, Final residual = 4.06871e-08, No Iterations 2
DICPCG:  Solving for p, Initial residual = 0.000934389, Final residual = 7.68841e-07, No Iterations 37
diagonal:  Solving for rho, Initial residual = 0, Final residual = 0, No Iterations 0
time step continuity errors : sum local = 5.20279e-09, global = 6.22242e-10, cumulative = 1.95037e-09
smoothSolver:  Solving for k, Initial residual = 0.0463134, Final residual = 1.61266e-08, No Iterations 3
bounding k, min: 0 max: 7.60068 average: 2.54248
ExecutionTime = 2.98 s  ClockTime = 4 s

Courant Number mean: 0.226547 max: 0.453823
Time = 0.155

PIMPLE: Iteration 1
diagonal:  Solving for rho, Initial residual = 0, Final residual = 0, No Iterations 0
smoothSolver:  Solving for Ux, Initial residual = 0.0454581, Final residual = 0.000322749, No Iterations 1
smoothSolver:  Solving for Uy, Initial residual = 0.0186955, Final residual = 0.000120879, No Iterations 1
smoothSolver:  Solving for e, Initial residual = 0.0138083, Final residual = 2.5644e-06, No Iterations 2
DICPCG:  Solving for p, Initial residual = 0.171345, Final residual = 9.05692e-07, No Iterations 54
diagonal:  Solving for rho, Initial residual = 0, Final residual = 0, No Iterations 0
time step continuity errors : sum local = 6.48258e-09, global = 1.26434e-10, cumulative = 2.07681e-09
PIMPLE: Iteration 2
smoothSolver:  Solving for Ux, Initial residual = 0.00152084, Final residual = 1.05618e-05, No Iterations 1
smoothSolver:  Solving for Uy, Initial residual = 0.00155786, Final residual = 1.05874e-05, No Iterations 1
smoothSolver:  Solving for e, Initial residual = 0.00146935, Final residual = 2.79303e-07, No Iterations 2
DICPCG:  Solving for p, Initial residual = 0.00689408, Final residual = 7.85392e-07, No Iterations 46
diagonal:  Solving for rho, Initial residual = 0, Final residual = 0, No Iterations 0
time step continuity errors : sum local = 5.65638e-09, global = -2.50875e-10, cumulative = 1.82593e-09
PIMPLE: Iteration 3
smoothSolver:  Solving for Ux, Initial residual = 9.66336e-05, Final residual = 6.85196e-07, No Iterations 1
smoothSolver:  Solving for Uy, Initial residual = 0.000609381, Final residual = 6.54403e-08, No Iterations 2
smoothSolver:  Solving for e, Initial residual = 0.000169042, Final residual = 3.05574e-08, No Iterations 2
DICPCG:  Solving for p, Initial residual = 0.000735106, Final residual = 9.63999e-07, No Iterations 33
diagonal:  Solving for rho, Initial residual = 0, Final residual = 0, No Iterations 0
time step continuity errors : sum local = 6.9043e-09, global = 4.81888e-10, cumulative = 2.30782e-09
smoothSolver:  Solving for k, Initial residual = 0.049727, Final residual = 1.88725e-08, No Iterations 3
bounding k, min: 0 max: 7.2641 average: 2.45326
ExecutionTime = 3.04 s  ClockTime = 4 s

Courant Number mean: 0.217279 max: 0.443758
Time = 0.16

PIMPLE: Iteration 1
diagonal:  Solving for rho, Initial residual = 0, Final residual = 0, No Iterations 0
smoothSolver:  Solving for Ux, Initial residual = 0.0471911, Final residual = 0.000347804, No Iterations 1
smoothSolver:  Solving for Uy, Initial residual = 0.0158911, Final residual = 0.00010187, No Iterations 1
smoothSolver:  Solving for e, Initial residual = 0.0130481, Final residual = 0.000124427, No Iterations 1
DICPCG:  Solving for p, Initial residual = 0.140388, Final residual = 9.76753e-07, No Iterations 52
diagonal:  Solving for rho, Initial residual = 0, Final residual = 0, No Iterations 0
time step continuity errors : sum local = 7.27592e-09, global = -2.6791e-10, cumulative = 2.03991e-09
PIMPLE: Iteration 2
smoothSolver:  Solving for Ux, Initial residual = 0.00123315, Final residual = 8.61551e-06, No Iterations 1
smoothSolver:  Solving for Uy, Initial residual = 0.00197821, Final residual = 1.41207e-05, No Iterations 1
smoothSolver:  Solving for e, Initial residual = 0.00192844, Final residual = 3.23071e-07, No Iterations 2
DICPCG:  Solving for p, Initial residual = 0.00869447, Final residual = 9.07529e-07, No Iterations 46
diagonal:  Solving for rho, Initial residual = 0, Final residual = 0, No Iterations 0
time step continuity errors : sum local = 6.64931e-09, global = -3.90081e-10, cumulative = 1.64983e-09
PIMPLE: Iteration 3
smoothSolver:  Solving for Ux, Initial residual = 0.000121629, Final residual = 7.37979e-07, No Iterations 1
smoothSolver:  Solving for Uy, Initial residual = 0.00120727, Final residual = 1.31185e-07, No Iterations 2
smoothSolver:  Solving for e, Initial residual = 0.000193475, Final residual = 4.26663e-08, No Iterations 2
DICPCG:  Solving for p, Initial residual = 0.000914239, Final residual = 7.70426e-07, No Iterations 35
diagonal:  Solving for rho, Initial residual = 0, Final residual = 0, No Iterations 0
time step continuity errors : sum local = 5.62329e-09, global = 3.64492e-10, cumulative = 2.01432e-09
smoothSolver:  Solving for k, Initial residual = 0.052757, Final residual = 2.02997e-08, No Iterations 3
bounding k, min: 0 max: 6.86518 average: 2.35643
ExecutionTime = 3.11 s  ClockTime = 4 s

Courant Number mean: 0.208504 max: 0.429161
Time = 0.165

PIMPLE: Iteration 1
diagonal:  Solving for rho, Initial residual = 0, Final residual = 0, No Iterations 0
smoothSolver:  Solving for Ux, Initial residual = 0.0536407, Final residual = 0.000378463, No Iterations 1
smoothSolver:  Solving for Uy, Initial residual = 0.0155468, Final residual = 9.67124e-05, No Iterations 1
smoothSolver:  Solving for e, Initial residual = 0.0121613, Final residual = 0.000110816, No Iterations 1
DICPCG:  Solving for p, Initial residual = 0.109097, Final residual = 9.08977e-07, No Iterations 53
diagonal:  Solving for rho, Initial residual = 0, Final residual = 0, No Iterations 0
time step continuity errors : sum local = 6.80421e-09, global = -5.0857e-11, cumulative = 1.96346e-09
PIMPLE: Iteration 2
smoothSolver:  Solving for Ux, Initial residual = 0.00101465, Final residual = 7.5096e-06, No Iterations 1
smoothSolver:  Solving for Uy, Initial residual = 0.00203245, Final residual = 1.34139e-05, No Iterations 1
smoothSolver:  Solving for e, Initial residual = 0.00218174, Final residual = 3.46518e-07, No Iterations 2
DICPCG:  Solving for p, Initial residual = 0.00982147, Final residual = 8.06095e-07, No Iterations 47
diagonal:  Solving for rho, Initial residual = 0, Final residual = 0, No Iterations 0
time step continuity errors : sum local = 5.85758e-09, global = -8.50252e-11, cumulative = 1.87844e-09
PIMPLE: Iteration 3
smoothSolver:  Solving for Ux, Initial residual = 0.000119145, Final residual = 6.7848e-07, No Iterations 1
smoothSolver:  Solving for Uy, Initial residual = 0.00102551, Final residual = 1.01855e-07, No Iterations 2
smoothSolver:  Solving for e, Initial residual = 0.000187489, Final residual = 3.62659e-08, No Iterations 2
DICPCG:  Solving for p, Initial residual = 0.000946248, Final residual = 8.02774e-07, No Iterations 33
diagonal:  Solving for rho, Initial residual = 0, Final residual = 0, No Iterations 0
time step continuity errors : sum local = 5.82388e-09, global = 1.06296e-09, cumulative = 2.9414e-09
smoothSolver:  Solving for k, Initial residual = 0.0549528, Final residual = 2.00396e-08, No Iterations 3
bounding k, min: 0 max: 6.40752 average: 2.25629
ExecutionTime = 3.18 s  ClockTime = 4 s

Courant Number mean: 0.200005 max: 0.409868
Time = 0.17

PIMPLE: Iteration 1
diagonal:  Solving for rho, Initial residual = 0, Final residual = 0, No Iterations 0
smoothSolver:  Solving for Ux, Initial residual = 0.0571635, Final residual = 0.000382952, No Iterations 1
smoothSolver:  Solving for Uy, Initial residual = 0.0158667, Final residual = 9.23606e-05, No Iterations 1
smoothSolver:  Solving for e, Initial residual = 0.0114585, Final residual = 0.000105461, No Iterations 1
DICPCG:  Solving for p, Initial residual = 0.0784954, Final residual = 8.50564e-07, No Iterations 53
diagonal:  Solving for rho, Initial residual = 0, Final residual = 0, No Iterations 0
time step continuity errors : sum local = 6.25427e-09, global = -2.48167e-10, cumulative = 2.69323e-09
PIMPLE: Iteration 2
smoothSolver:  Solving for Ux, Initial residual = 0.00101476, Final residual = 6.95552e-06, No Iterations 1
smoothSolver:  Solving for Uy, Initial residual = 0.00193429, Final residual = 1.33593e-05, No Iterations 1
smoothSolver:  Solving for e, Initial residual = 0.00219932, Final residual = 3.84686e-07, No Iterations 2
DICPCG:  Solving for p, Initial residual = 0.00989995, Final residual = 8.32784e-07, No Iterations 45
diagonal:  Solving for rho, Initial residual = 0, Final residual = 0, No Iterations 0
time step continuity errors : sum local = 5.92928e-09, global = 4.28617e-11, cumulative = 2.73609e-09
PIMPLE: Iteration 3
smoothSolver:  Solving for Ux, Initial residual = 0.000102924, Final residual = 6.05356e-07, No Iterations 1
smoothSolver:  Solving for Uy, Initial residual = 0.00093988, Final residual = 8.26498e-08, No Iterations 2
smoothSolver:  Solving for e, Initial residual = 0.000180927, Final residual = 3.16086e-08, No Iterations 2
DICPCG:  Solving for p, Initial residual = 0.00091078, Final residual = 9.35955e-07, No Iterations 32
diagonal:  Solving for rho, Initial residual = 0, Final residual = 0, No Iterations 0
time step continuity errors : sum local = 6.66931e-09, global = -4.13715e-10, cumulative = 2.32238e-09
smoothSolver:  Solving for k, Initial residual = 0.056919, Final residual = 1.8163e-08, No Iterations 3
bounding k, min: 0 max: 5.90163 average: 2.15637
ExecutionTime = 3.24 s  ClockTime = 4 s

Courant Number mean: 0.191486 max: 0.386278
Time = 0.175

PIMPLE: Iteration 1
diagonal:  Solving for rho, Initial residual = 0, Final residual = 0, No Iterations 0
[...]
smoothSolver:  Solving for Uy, Initial residual = 0.00898347, Final residual = 3.2684e-05, No Iterations 1
smoothSolver:  Solving for e, Initial residual = 0.00724697, Final residual = 3.21634e-05, No Iterations 1
DICPCG:  Solving for p, Initial residual = 0.738763, Final residual = 9.26321e-07, No Iterations 65
diagonal:  Solving for rho, Initial residual = 0, Final residual = 0, No Iterations 0
time step continuity errors : sum local = 6.44093e-10, global = 2.17989e-11, cumulative = 1.23572e-10
PIMPLE: Iteration 2
smoothSolver:  Solving for Ux, Initial residual = 0.000515251, Final residual = 1.40781e-06, No Iterations 1
smoothSolver:  Solving for Uy, Initial residual = 0.000279424, Final residual = 8.3238e-07, No Iterations 1
smoothSolver:  Solving for e, Initial residual = 7.39363e-05, Final residual = 5.0491e-07, No Iterations 1
DICPCG:  Solving for p, Initial residual = 0.00524642, Final residual = 8.1287e-07, No Iterations 49
diagonal:  Solving for rho, Initial residual = 0, Final residual = 0, No Iterations 0
time step continuity errors : sum local = 8.16328e-10, global = 4.2001e-11, cumulative = 1.65573e-10
PIMPLE: Iteration 3
smoothSolver:  Solving for Ux, Initial residual = 1.00813e-05, Final residual = 2.93509e-08, No Iterations 1
smoothSolver:  Solving for Uy, Initial residual = 0.000458095, Final residual = 6.13808e-09, No Iterations 2
smoothSolver:  Solving for e, Initial residual = 2.86712e-05, Final residual = 1.65224e-07, No Iterations 1
DICPCG:  Solving for p, Initial residual = 0.00216111, Final residual = 9.13561e-07, No Iterations 41
diagonal:  Solving for rho, Initial residual = 0, Final residual = 0, No Iterations 0
time step continuity errors : sum local = 9.17382e-10, global = 6.90679e-11, cumulative = 2.34641e-10
smoothSolver:  Solving for k, Initial residual = 0.0338747, Final residual = 3.51066e-07, No Iterations 2
bounding k, min: 0 max: 2.07014 average: 1.20564
ExecutionTime = 8.4 s  ClockTime = 10 s

Courant Number mean: 0.141619 max: 0.254344
Time = 0.465

PIMPLE: Iteration 1
diagonal:  Solving for rho, Initial residual = 0, Final residual = 0, No Iterations 0
smoothSolver:  Solving for Ux, Initial residual = 0.00676184, Final residual = 2.46991e-05, No Iterations 1
smoothSolver:  Solving for Uy, Initial residual = 0.00822226, Final residual = 3.00787e-05, No Iterations 1
smoothSolver:  Solving for e, Initial residual = 0.00715901, Final residual = 3.07822e-05, No Iterations 1
DICPCG:  Solving for p, Initial residual = 0.364949, Final residual = 9.01031e-07, No Iterations 62
diagonal:  Solving for rho, Initial residual = 0, Final residual = 0, No Iterations 0
time step continuity errors : sum local = 1.2645e-09, global = 2.2258e-11, cumulative = 2.56899e-10
PIMPLE: Iteration 2
smoothSolver:  Solving for Ux, Initial residual = 0.000505498, Final residual = 1.34088e-06, No Iterations 1
smoothSolver:  Solving for Uy, Initial residual = 0.00031199, Final residual = 8.55394e-07, No Iterations 1
smoothSolver:  Solving for e, Initial residual = 9.37726e-05, Final residual = 5.33911e-07, No Iterations 1
DICPCG:  Solving for p, Initial residual = 0.00418479, Final residual = 8.18911e-07, No Iterations 45
diagonal:  Solving for rho, Initial residual = 0, Final residual = 0, No Iterations 0
time step continuity errors : sum local = 1.49876e-09, global = -5.88391e-11, cumulative = 1.9806e-10
PIMPLE: Iteration 3
smoothSolver:  Solving for Ux, Initial residual = 1.61376e-05, Final residual = 4.39468e-08, No Iterations 1
smoothSolver:  Solving for Uy, Initial residual = 0.000438656, Final residual = 5.7195e-09, No Iterations 2
smoothSolver:  Solving for e, Initial residual = 2.58189e-05, Final residual = 1.49623e-07, No Iterations 1
DICPCG:  Solving for p, Initial residual = 0.00107615, Final residual = 9.57778e-07, No Iterations 37
diagonal:  Solving for rho, Initial residual = 0, Final residual = 0, No Iterations 0
time step continuity errors : sum local = 1.74726e-09, global = 1.59237e-10, cumulative = 3.57297e-10
smoothSolver:  Solving for k, Initial residual = 0.0313438, Final residual = 3.22435e-07, No Iterations 2
bounding k, min: 0 max: 2.06299 average: 1.17928
ExecutionTime = 8.46 s  ClockTime = 10 s

Courant Number mean: 0.142434 max: 0.252739
Time = 0.47

PIMPLE: Iteration 1
diagonal:  Solving for rho, Initial residual = 0, Final residual = 0, No Iterations 0
smoothSolver:  Solving for Ux, Initial residual = 0.00963043, Final residual = 3.28246e-05, No Iterations 1
smoothSolver:  Solving for Uy, Initial residual = 0.00733912, Final residual = 2.68926e-05, No Iterations 1
smoothSolver:  Solving for e, Initial residual = 0.00706559, Final residual = 2.95827e-05, No Iterations 1
DICPCG:  Solving for p, Initial residual = 0.233943, Final residual = 7.61151e-07, No Iterations 60
diagonal:  Solving for rho, Initial residual = 0, Final residual = 0, No Iterations 0
time step continuity errors : sum local = 1.65519e-09, global = 3.44279e-11, cumulative = 3.91724e-10
PIMPLE: Iteration 2
smoothSolver:  Solving for Ux, Initial residual = 0.000474792, Final residual = 1.22608e-06, No Iterations 1
smoothSolver:  Solving for Uy, Initial residual = 0.000353828, Final residual = 9.64078e-07, No Iterations 1
smoothSolver:  Solving for e, Initial residual = 0.000154725, Final residual = 7.85327e-07, No Iterations 1
DICPCG:  Solving for p, Initial residual = 0.00450184, Final residual = 8.52328e-07, No Iterations 46
diagonal:  Solving for rho, Initial residual = 0, Final residual = 0, No Iterations 0
time step continuity errors : sum local = 2.20003e-09, global = -2.41678e-10, cumulative = 1.50046e-10
PIMPLE: Iteration 3
smoothSolver:  Solving for Ux, Initial residual = 2.44315e-05, Final residual = 6.41563e-08, No Iterations 1
smoothSolver:  Solving for Uy, Initial residual = 0.000420364, Final residual = 5.36549e-09, No Iterations 2
smoothSolver:  Solving for e, Initial residual = 2.34689e-05, Final residual = 1.3216e-07, No Iterations 1
DICPCG:  Solving for p, Initial residual = 0.000690792, Final residual = 9.2405e-07, No Iterations 34
diagonal:  Solving for rho, Initial residual = 0, Final residual = 0, No Iterations 0
time step continuity errors : sum local = 2.37526e-09, global = 2.39577e-10, cumulative = 3.89623e-10
smoothSolver:  Solving for k, Initial residual = 0.0312432, Final residual = 3.12833e-07, No Iterations 2
bounding k, min: 0 max: 2.06429 average: 1.15662
ExecutionTime = 8.52 s  ClockTime = 10 s

Courant Number mean: 0.143964 max: 0.251495
Time = 0.475

PIMPLE: Iteration 1
diagonal:  Solving for rho, Initial residual = 0, Final residual = 0, No Iterations 0
smoothSolver:  Solving for Ux, Initial residual = 0.0142247, Final residual = 4.2728e-05, No Iterations 1
smoothSolver:  Solving for Uy, Initial residual = 0.00668121, Final residual = 2.36284e-05, No Iterations 1
smoothSolver:  Solving for e, Initial residual = 0.00696257, Final residual = 2.85465e-05, No Iterations 1
DICPCG:  Solving for p, Initial residual = 0.175314, Final residual = 7.991e-07, No Iterations 58
diagonal:  Solving for rho, Initial residual = 0, Final residual = 0, No Iterations 0
time step continuity errors : sum local = 2.28652e-09, global = 8.49319e-11, cumulative = 4.74555e-10
PIMPLE: Iteration 2
smoothSolver:  Solving for Ux, Initial residual = 0.000427074, Final residual = 1.07649e-06, No Iterations 1
smoothSolver:  Solving for Uy, Initial residual = 0.000386785, Final residual = 1.05846e-06, No Iterations 1
smoothSolver:  Solving for e, Initial residual = 0.000196752, Final residual = 9.52666e-07, No Iterations 1
DICPCG:  Solving for p, Initial residual = 0.00442225, Final residual = 7.86189e-07, No Iterations 46
diagonal:  Solving for rho, Initial residual = 0, Final residual = 0, No Iterations 0
time step continuity errors : sum local = 2.52152e-09, global = -1.70218e-10, cumulative = 3.04337e-10
PIMPLE: Iteration 3
smoothSolver:  Solving for Ux, Initial residual = 2.91355e-05, Final residual = 7.40322e-08, No Iterations 1
smoothSolver:  Solving for Uy, Initial residual = 0.000408584, Final residual = 5.04329e-09, No Iterations 2
smoothSolver:  Solving for e, Initial residual = 2.25872e-05, Final residual = 1.16102e-07, No Iterations 1
DICPCG:  Solving for p, Initial residual = 0.000527129, Final residual = 8.39379e-07, No Iterations 33
diagonal:  Solving for rho, Initial residual = 0, Final residual = 0, No Iterations 0
time step continuity errors : sum local = 2.68058e-09, global = 3.29284e-10, cumulative = 6.33622e-10
smoothSolver:  Solving for k, Initial residual = 0.0338526, Final residual = 3.23242e-07, No Iterations 2
bounding k, min: 0 max: 2.06697 average: 1.13799
ExecutionTime = 8.71 s  ClockTime = 10 s

Courant Number mean: 0.146116 max: 0.250865
Time = 0.48

PIMPLE: Iteration 1
diagonal:  Solving for rho, Initial residual = 0, Final residual = 0, No Iterations 0
smoothSolver:  Solving for Ux, Initial residual = 0.0185251, Final residual = 5.11322e-05, No Iterations 1
smoothSolver:  Solving for Uy, Initial residual = 0.00642866, Final residual = 2.11274e-05, No Iterations 1
smoothSolver:  Solving for e, Initial residual = 0.0068463, Final residual = 2.76024e-05, No Iterations 1
DICPCG:  Solving for p, Initial residual = 0.142628, Final residual = 8.14796e-07, No Iterations 56
diagonal:  Solving for rho, Initial residual = 0, Final residual = 0, No Iterations 0
time step continuity errors : sum local = 2.78586e-09, global = 1.25341e-10, cumulative = 7.58963e-10
PIMPLE: Iteration 2
smoothSolver:  Solving for Ux, Initial residual = 0.000366962, Final residual = 9.05512e-07, No Iterations 1
smoothSolver:  Solving for Uy, Initial residual = 0.000404232, Final residual = 1.09625e-06, No Iterations 1
smoothSolver:  Solving for e, Initial residual = 0.000209109, Final residual = 9.77137e-07, No Iterations 1
DICPCG:  Solving for p, Initial residual = 0.00399116, Final residual = 9.39599e-07, No Iterations 45
diagonal:  Solving for rho, Initial residual = 0, Final residual = 0, No Iterations 0
time step continuity errors : sum local = 3.46637e-09, global = -1.46095e-10, cumulative = 6.12868e-10
PIMPLE: Iteration 3
smoothSolver:  Solving for Ux, Initial residual = 2.92237e-05, Final residual = 7.18459e-08, No Iterations 1
smoothSolver:  Solving for Uy, Initial residual = 0.000401279, Final residual = 4.81533e-09, No Iterations 2
smoothSolver:  Solving for e, Initial residual = 2.16985e-05, Final residual = 1.01882e-07, No Iterations 1
DICPCG:  Solving for p, Initial residual = 0.000429617, Final residual = 9.13525e-07, No Iterations 32
diagonal:  Solving for rho, Initial residual = 0, Final residual = 0, No Iterations 0
time step continuity errors : sum local = 3.35667e-09, global = 1.85711e-10, cumulative = 7.98579e-10
smoothSolver:  Solving for k, Initial residual = 0.0364862, Final residual = 3.53031e-07, No Iterations 2
bounding k, min: 0 max: 2.07073 average: 1.12371
ExecutionTime = 8.77 s  ClockTime = 10 s

Courant Number mean: 0.148779 max: 0.251157
Time = 0.485

PIMPLE: Iteration 1
diagonal:  Solving for rho, Initial residual = 0, Final residual = 0, No Iterations 0
smoothSolver:  Solving for Ux, Initial residual = 0.0223416, Final residual = 5.76868e-05, No Iterations 1
smoothSolver:  Solving for Uy, Initial residual = 0.00622186, Final residual = 1.96493e-05, No Iterations 1
smoothSolver:  Solving for e, Initial residual = 0.00670015, Final residual = 2.67047e-05, No Iterations 1
DICPCG:  Solving for p, Initial residual = 0.120687, Final residual = 8.64531e-07, No Iterations 54
diagonal:  Solving for rho, Initial residual = 0, Final residual = 0, No Iterations 0
time step continuity errors : sum local = 3.31753e-09, global = -1.19075e-10, cumulative = 6.79504e-10
PIMPLE: Iteration 2
smoothSolver:  Solving for Ux, Initial residual = 0.000299673, Final residual = 7.2801e-07, No Iterations 1
smoothSolver:  Solving for Uy, Initial residual = 0.000404732, Final residual = 1.08048e-06, No Iterations 1
smoothSolver:  Solving for e, Initial residual = 0.000192602, Final residual = 8.66802e-07, No Iterations 1
DICPCG:  Solving for p, Initial residual = 0.00331893, Final residual = 9.74189e-07, No Iterations 44
diagonal:  Solving for rho, Initial residual = 0, Final residual = 0, No Iterations 0
time step continuity errors : sum local = 3.9236e-09, global = -1.26541e-10, cumulative = 5.52963e-10
PIMPLE: Iteration 3
smoothSolver:  Solving for Ux, Initial residual = 2.48724e-05, Final residual = 5.94371e-08, No Iterations 1
smoothSolver:  Solving for Uy, Initial residual = 0.000402077, Final residual = 4.75462e-09, No Iterations 2
smoothSolver:  Solving for e, Initial residual = 2.12461e-05, Final residual = 9.18756e-08, No Iterations 1
DICPCG:  Solving for p, Initial residual = 0.000375685, Final residual = 9.60255e-07, No Iterations 31
diagonal:  Solving for rho, Initial residual = 0, Final residual = 0, No Iterations 0
time step continuity errors : sum local = 3.85436e-09, global = -5.3503e-11, cumulative = 4.9946e-10
smoothSolver:  Solving for k, Initial residual = 0.03891, Final residual = 3.957e-07, No Iterations 2
bounding k, min: 0 max: 2.07521 average: 1.11403
ExecutionTime = 8.84 s  ClockTime = 10 s

Courant Number mean: 0.151833 max: 0.252654
Time = 0.49

PIMPLE: Iteration 1
diagonal:  Solving for rho, Initial residual = 0, Final residual = 0, No Iterations 0
smoothSolver:  Solving for Ux, Initial residual = 0.0252533, Final residual = 6.20642e-05, No Iterations 1
smoothSolver:  Solving for Uy, Initial residual = 0.00604085, Final residual = 1.9004e-05, No Iterations 1
smoothSolver:  Solving for e, Initial residual = 0.00651674, Final residual = 2.58612e-05, No Iterations 1
DICPCG:  Solving for p, Initial residual = 0.103048, Final residual = 8.36361e-07, No Iterations 54
diagonal:  Solving for rho, Initial residual = 0, Final residual = 0, No Iterations 0
time step continuity errors : sum local = 3.45111e-09, global = 2.58449e-11, cumulative = 5.25305e-10
PIMPLE: Iteration 2
smoothSolver:  Solving for Ux, Initial residual = 0.000267725, Final residual = 6.34464e-07, No Iterations 1
smoothSolver:  Solving for Uy, Initial residual = 0.000425261, Final residual = 1.0873e-06, No Iterations 1
smoothSolver:  Solving for e, Initial residual = 0.000160985, Final residual = 7.01661e-07, No Iterations 1
DICPCG:  Solving for p, Initial residual = 0.00263453, Final residual = 8.56115e-07, No Iterations 44
diagonal:  Solving for rho, Initial residual = 0, Final residual = 0, No Iterations 0
time step continuity errors : sum local = 3.63398e-09, global = -1.46874e-10, cumulative = 3.78431e-10
PIMPLE: Iteration 3
smoothSolver:  Solving for Ux, Initial residual = 1.7576e-05, Final residual = 4.20141e-08, No Iterations 1
smoothSolver:  Solving for Uy, Initial residual = 0.000418274, Final residual = 4.97363e-09, No Iterations 2
smoothSolver:  Solving for e, Initial residual = 2.16499e-05, Final residual = 8.94298e-08, No Iterations 1
DICPCG:  Solving for p, Initial residual = 0.000360072, Final residual = 9.48072e-07, No Iterations 30
diagonal:  Solving for rho, Initial residual = 0, Final residual = 0, No Iterations 0
time step continuity errors : sum local = 4.01387e-09, global = -2.84197e-10, cumulative = 9.42341e-11
smoothSolver:  Solving for k, Initial residual = 0.0403038, Final residual = 4.37717e-07, No Iterations 2
bounding k, min: 0 max: 2.08005 average: 1.1091
ExecutionTime = 8.9 s  ClockTime = 10 s

Courant Number mean: 0.155157 max: 0.255538
Time = 0.495

PIMPLE: Iteration 1
diagonal:  Solving for rho, Initial residual = 0, Final residual = 0, No Iterations 0
smoothSolver:  Solving for Ux, Initial residual = 0.0271645, Final residual = 6.45554e-05, No Iterations 1
smoothSolver:  Solving for Uy, Initial residual = 0.00600015, Final residual = 1.84486e-05, No Iterations 1
smoothSolver:  Solving for e, Initial residual = 0.00629517, Final residual = 2.50269e-05, No Iterations 1
DICPCG:  Solving for p, Initial residual = 0.0864307, Final residual = 6.11525e-07, No Iterations 54
diagonal:  Solving for rho, Initial residual = 0, Final residual = 0, No Iterations 0
time step continuity errors : sum local = 2.637e-09, global = 5.35486e-11, cumulative = 1.47783e-10
PIMPLE: Iteration 2
smoothSolver:  Solving for Ux, Initial residual = 0.000295142, Final residual = 6.76539e-07, No Iterations 1
smoothSolver:  Solving for Uy, Initial residual = 0.000472496, Final residual = 1.14715e-06, No Iterations 1
smoothSolver:  Solving for e, Initial residual = 0.000168831, Final residual = 7.49608e-07, No Iterations 1
DICPCG:  Solving for p, Initial residual = 0.00278172, Final residual = 8.63575e-07, No Iterations 43
diagonal:  Solving for rho, Initial residual = 0, Final residual = 0, No Iterations 0
time step continuity errors : sum local = 3.77932e-09, global = -1.51835e-10, cumulative = -4.0524e-12
PIMPLE: Iteration 3
smoothSolver:  Solving for Ux, Initial residual = 1.3809e-05, Final residual = 3.44722e-08, No Iterations 1
smoothSolver:  Solving for Uy, Initial residual = 0.000451097, Final residual = 5.4193e-09, No Iterations 2
smoothSolver:  Solving for e, Initial residual = 2.20709e-05, Final residual = 9.30916e-08, No Iterations 1
DICPCG:  Solving for p, Initial residual = 0.00035932, Final residual = 8.40019e-07, No Iterations 31
diagonal:  Solving for rho, Initial residual = 0, Final residual = 0, No Iterations 0
time step continuity errors : sum local = 3.66984e-09, global = -4.65834e-10, cumulative = -4.69887e-10
smoothSolver:  Solving for k, Initial residual = 0.0405071, Final residual = 4.62614e-07, No Iterations 2
bounding k, min: 0 max: 2.08489 average: 1.10899
ExecutionTime = 8.96 s  ClockTime = 10 s

Courant Number mean: 0.158641 max: 0.25988
Time = 0.5

PIMPLE: Iteration 1
diagonal:  Solving for rho, Initial residual = 0, Final residual = 0, No Iterations 0
smoothSolver:  Solving for Ux, Initial residual = 0.0281398, Final residual = 6.50054e-05, No Iterations 1
smoothSolver:  Solving for Uy, Initial residual = 0.00590779, Final residual = 1.7856e-05, No Iterations 1
smoothSolver:  Solving for e, Initial residual = 0.00602689, Final residual = 2.42483e-05, No Iterations 1
DICPCG:  Solving for p, Initial residual = 0.0691885, Final residual = 8.64221e-07, No Iterations 52
diagonal:  Solving for rho, Initial residual = 0, Final residual = 0, No Iterations 0
time step continuity errors : sum local = 3.8266e-09, global = 6.8379e-11, cumulative = -4.01507e-10
PIMPLE: Iteration 2
smoothSolver:  Solving for Ux, Initial residual = 0.000291937, Final residual = 6.57942e-07, No Iterations 1
smoothSolver:  Solving for Uy, Initial residual = 0.000512727, Final residual = 1.19894e-06, No Iterations 1
smoothSolver:  Solving for e, Initial residual = 0.000198323, Final residual = 9.19339e-07, No Iterations 1
DICPCG:  Solving for p, Initial residual = 0.00320092, Final residual = 8.39877e-07, No Iterations 42
diagonal:  Solving for rho, Initial residual = 0, Final residual = 0, No Iterations 0
time step continuity errors : sum local = 3.74537e-09, global = 1.0734e-10, cumulative = -2.94168e-10
PIMPLE: Iteration 3
smoothSolver:  Solving for Ux, Initial residual = 1.20797e-05, Final residual = 3.09271e-08, No Iterations 1
smoothSolver:  Solving for Uy, Initial residual = 0.00050024, Final residual = 6.17201e-09, No Iterations 2
smoothSolver:  Solving for e, Initial residual = 2.264e-05, Final residual = 9.56729e-08, No Iterations 1
DICPCG:  Solving for p, Initial residual = 0.000377033, Final residual = 8.80338e-07, No Iterations 31
diagonal:  Solving for rho, Initial residual = 0, Final residual = 0, No Iterations 0
time step continuity errors : sum local = 3.92188e-09, global = -5.20985e-10, cumulative = -8.15152e-10
smoothSolver:  Solving for k, Initial residual = 0.0421148, Final residual = 4.73138e-07, No Iterations 2
bounding k, min: 0 max: 2.08939 average: 1.11364
ExecutionTime = 9.15 s  ClockTime = 10 s

End

