/*---------------------------------------------------------------------------*\
  =========                 |
  \\      /  F ield         | OpenFOAM: The Open Source CFD Toolbox
   \\    /   O peration     | Website:  https://openfoam.org
    \\  /    A nd           | Version:  7
     \\/     M anipulation  |
\*---------------------------------------------------------------------------*/
Build  : 7-49b2b3b8b082
Exec   : blockMesh
Date   : Apr 20 2023
Time   : 10:30:08
Host   : "c401-004.stampede2.tacc.utexas.edu"
PID    : 204702
I/O    : uncollated
Case   : /work2/08376/lew2547/stampede2/CooliestModel/src/CFD/ConvergenceStudy-x2/pipe_validation_400
nProcs : 1
sigFpe : Enabling floating point exception trapping (FOAM_SIGFPE).
fileModificationChecking : Monitoring run-time modified files using timeStampMaster (fileModificationSkew 10)
allowSystemOperations : Allowing user-supplied system call operations

// * * * * * * * * * * * * * * * * * * * * * * * * * * * * * * * * * * * * * //
Create time

Deleting polyMesh directory
    "/work2/08376/lew2547/stampede2/CooliestModel/src/CFD/ConvergenceStudy-x2/pipe_validation_400/constant/polyMesh"
Creating block mesh from
    "/work2/08376/lew2547/stampede2/CooliestModel/src/CFD/ConvergenceStudy-x2/pipe_validation_400/system/blockMeshDict"
Creating block edges
No non-planar block faces defined
Creating topology blocks
Creating topology patches

Creating block mesh topology

Check topology

	Basic statistics
		Number of internal faces : 1
		Number of boundary faces : 10
		Number of defined boundary faces : 10
		Number of undefined boundary faces : 0
	Checking patch -> block consistency

Creating block offsets
Creating merge list .

Creating polyMesh from blockMesh
Creating points with scale 1
    Block 0 cell size :
        i : 0.012 .. 0.012
        j : 0.0166667 .. 0.0166667
        k : 0.15
    Block 1 cell size :
        i : 0.045 .. 0.045
        j : 0.0166667 .. 0.0166667
        k : 0.15
Creating cells
Creating patches

There are no merge patch pairs edges

Writing polyMesh
----------------
Mesh Information
----------------
  boundingBox: (0 0 -0.15) (19.2 0.2 0)
  nPoints: 13026
  nCells: 6000
  nFaces: 24512
  nInternalFaces: 11488
----------------
Patches
----------------
  patch 0 (start: 11488 size: 500) name: upperWall
  patch 1 (start: 11988 size: 100) name: lowerWall
  patch 2 (start: 12088 size: 400) name: heatedWall
  patch 3 (start: 12488 size: 12) name: inlet
  patch 4 (start: 12500 size: 12) name: outlet
  patch 5 (start: 12512 size: 12000) name: frontAndBack

End

