/*---------------------------------------------------------------------------*\
  =========                 |
  \\      /  F ield         | OpenFOAM: The Open Source CFD Toolbox
   \\    /   O peration     | Website:  https://openfoam.org
    \\  /    A nd           | Version:  7
     \\/     M anipulation  |
\*---------------------------------------------------------------------------*/
Build  : 7-49b2b3b8b082
Exec   : blockMesh
Date   : Apr 20 2023
Time   : 10:25:52
Host   : "c417-084.stampede2.tacc.utexas.edu"
PID    : 267731
I/O    : uncollated
Case   : /work2/08376/lew2547/stampede2/CooliestModel/src/CFD/ConvergenceStudy-x2/pipe_validation_160
nProcs : 1
sigFpe : Enabling floating point exception trapping (FOAM_SIGFPE).
fileModificationChecking : Monitoring run-time modified files using timeStampMaster (fileModificationSkew 10)
allowSystemOperations : Allowing user-supplied system call operations

// * * * * * * * * * * * * * * * * * * * * * * * * * * * * * * * * * * * * * //
Create time

Deleting polyMesh directory
    "/work2/08376/lew2547/stampede2/CooliestModel/src/CFD/ConvergenceStudy-x2/pipe_validation_160/constant/polyMesh"
Creating block mesh from
    "/work2/08376/lew2547/stampede2/CooliestModel/src/CFD/ConvergenceStudy-x2/pipe_validation_160/system/blockMeshDict"
Creating block edges
No non-planar block faces defined
Creating topology blocks
Creating topology patches

Creating block mesh topology

Check topology

	Basic statistics
		Number of internal faces : 1
		Number of boundary faces : 10
		Number of defined boundary faces : 10
		Number of undefined boundary faces : 0
	Checking patch -> block consistency

Creating block offsets
Creating merge list .

Creating polyMesh from blockMesh
Creating points with scale 1
    Block 0 cell size :
        i : 0.03 .. 0.03
        j : 0.0166667 .. 0.0166667
        k : 0.15
    Block 1 cell size :
        i : 0.1125 .. 0.1125
        j : 0.0166667 .. 0.0166667
        k : 0.15
Creating cells
Creating patches

There are no merge patch pairs edges

Writing polyMesh
----------------
Mesh Information
----------------
  boundingBox: (0 0 -0.15) (19.2 0.2 0)
  nPoints: 5226
  nCells: 2400
  nFaces: 9812
  nInternalFaces: 4588
----------------
Patches
----------------
  patch 0 (start: 4588 size: 200) name: upperWall
  patch 1 (start: 4788 size: 40) name: lowerWall
  patch 2 (start: 4828 size: 160) name: heatedWall
  patch 3 (start: 4988 size: 12) name: inlet
  patch 4 (start: 5000 size: 12) name: outlet
  patch 5 (start: 5012 size: 4800) name: frontAndBack

End

